pcf
* control data
             restart      regularization
        12      5109         5        12         6
         2         1              single               point
   2.000000E+01  -3.000000E+00   3.000000E-01   1.000000E-02        -7
   1.000000E+01   1.000000E+01   1.000000E-03
   1.000000E-01
         0   1.000000E-02         3         3   1.000000E-02         3
         0         0         0
* singular value decomposition
         1
  10000000    1.000000E-06
1
* parameter groups
hk                     relative              1.0000000000E-02      0.0 switch                2.0000000000E+00      parabolic             1.0000000000E-05      5.0000000000E-01      smaller              
ss                     relative              1.0000000000E-02      0.0 switch                2.0000000000E+00      parabolic             1.0000000000E-05      5.0000000000E-01      smaller              
vk                     relative              1.0000000000E-02      0.0 switch                2.0000000000E+00      parabolic             1.0000000000E-05      5.0000000000E-01      smaller              
sy                     relative              1.0000000000E-02      0.0 switch                2.0000000000E+00      parabolic             1.0000000000E-05      5.0000000000E-01      smaller              
swrk                   relative              1.0000000000E-02      0.0 switch                2.0000000000E+00      parabolic             1.0000000000E-05      5.0000000000E-01      smaller              
* parameter data
hk_1                  log                   factor                3.2549773000E-01      1.1000000000E-10      1.1000000000E+10      hk                    1.0000000000E+00      0.0000000000E+00      1          
hk_2                  log                   factor                8.8937644000E-04      1.1000000000E-10      1.1000000000E+10      hk                    1.0000000000E+00      0.0000000000E+00      1          
hk_3                  log                   factor                1.8271905000E+00      1.1000000000E-10      1.1000000000E+10      hk                    1.0000000000E+00      0.0000000000E+00      1          
ss_1                  log                   factor                1.0000000000E-03      1.0000000000E-06      1.0000000000E-03      ss                    1.0000000000E+00      0.0000000000E+00      1          
ss_2                  log                   factor                1.0000000000E-03      1.0000000000E-06      1.0000000000E-03      ss                    1.0000000000E+00      0.0000000000E+00      1          
ss_3                  log                   factor                1.0000000000E-05      1.0000000000E-05      1.0000000000E-03      ss                    1.0000000000E+00      0.0000000000E+00      1          
swrk                  log                   factor                2.5942632000E-06      1.4000000000E-08      1.4000000000E-04      swrk                  1.0000000000E+00      0.0000000000E+00      1          
sy_1                  log                   factor                8.4006823000E-02      5.0000000000E-02      3.0000000000E-01      sy                    1.0000000000E+00      0.0000000000E+00      1          
sy_2                  log                   factor                5.0000000000E-02      5.0000000000E-02      3.0000000000E-01      sy                    1.0000000000E+00      0.0000000000E+00      1          
vk_1                  log                   factor                8.7870371000E+00      1.0000000000E-05      1.0000000000E+05      vk                    1.0000000000E+00      0.0000000000E+00      1          
vk_2                  log                   factor                1.7318794000E-01      1.0000000000E-05      1.0000000000E+05      vk                    1.0000000000E+00      0.0000000000E+00      1          
vk_3                  log                   factor                1.4360443000E-02      1.0000000000E-05      1.0000000000E+05      vk                    1.0000000000E+00      0.0000000000E+00      1          
* observation groups
obgnme               
regulhk              
regulss              
regulswrk            
regulsy              
regulvk              
* observation data
lrr0061.1             3.2583301544E+01      5.0000000000E-01      obgnme               
lrr0061.10            3.7273300171E+01      5.0000000000E-01      obgnme               
lrr0061.100           3.3707901001E+01      5.0000000000E-01      obgnme               
lrr0061.101           3.3737300873E+01      1.0000000000E+00      obgnme               
lrr0061.102           3.3749401093E+01      1.0000000000E+00      obgnme               
lrr0061.103           3.3636199951E+01      1.0000000000E+00      obgnme               
lrr0061.104           3.3430599213E+01      1.0000000000E+00      obgnme               
lrr0061.105           3.3428100586E+01      1.0000000000E+00      obgnme               
lrr0061.106           3.3293300629E+01      1.0000000000E+00      obgnme               
lrr0061.107           3.3100601196E+01      1.0000000000E+00      obgnme               
lrr0061.108           3.3004798889E+01      1.0000000000E+00      obgnme               
lrr0061.109           3.2890598297E+01      1.0000000000E+00      obgnme               
lrr0061.11            3.6529800415E+01      5.0000000000E-01      obgnme               
lrr0061.110           3.2755001068E+01      1.0000000000E+00      obgnme               
lrr0061.111           3.2643100739E+01      1.0000000000E+00      obgnme               
lrr0061.112           3.2486698151E+01      1.0000000000E+00      obgnme               
lrr0061.113           3.2836898804E+01      1.0000000000E+00      obgnme               
lrr0061.114           3.2828300476E+01      1.0000000000E+00      obgnme               
lrr0061.115           3.2631500244E+01      1.0000000000E+00      obgnme               
lrr0061.116           3.2542499542E+01      1.0000000000E+00      obgnme               
lrr0061.117           3.2387901306E+01      1.0000000000E+00      obgnme               
lrr0061.118           3.2185398102E+01      1.0000000000E+00      obgnme               
lrr0061.119           3.2119201660E+01      1.0000000000E+00      obgnme               
lrr0061.12            3.5932498932E+01      5.0000000000E-01      obgnme               
lrr0061.120           3.1917299271E+01      1.0000000000E+00      obgnme               
lrr0061.121           3.1670400620E+01      1.0000000000E+00      obgnme               
lrr0061.122           3.1680000305E+01      1.0000000000E+00      obgnme               
lrr0061.123           3.1582300186E+01      1.0000000000E+00      obgnme               
lrr0061.124           3.1365400314E+01      1.0000000000E+00      obgnme               
lrr0061.125           3.1306200028E+01      1.0000000000E+00      obgnme               
lrr0061.126           3.1272499085E+01      1.0000000000E+00      obgnme               
lrr0061.127           3.1329200745E+01      1.0000000000E+00      obgnme               
lrr0061.128           3.1434000015E+01      1.0000000000E+00      obgnme               
lrr0061.129           3.1403099060E+01      1.0000000000E+00      obgnme               
lrr0061.13            3.7757099152E+01      5.0000000000E-01      obgnme               
lrr0061.130           3.1279399872E+01      1.0000000000E+00      obgnme               
lrr0061.131           3.1231500626E+01      1.0000000000E+00      obgnme               
lrr0061.132           3.1272699356E+01      1.0000000000E+00      obgnme               
lrr0061.133           3.1249599457E+01      1.0000000000E+00      obgnme               
lrr0061.134           3.1198999405E+01      1.0000000000E+00      obgnme               
lrr0061.135           3.1154399872E+01      1.0000000000E+00      obgnme               
lrr0061.136           3.1057500839E+01      1.0000000000E+00      obgnme               
lrr0061.137           3.0937700272E+01      1.0000000000E+00      obgnme               
lrr0061.138           3.0966699600E+01      1.0000000000E+00      obgnme               
lrr0061.139           3.0892700195E+01      1.0000000000E+00      obgnme               
lrr0061.14            3.8557701111E+01      5.0000000000E-01      obgnme               
lrr0061.140           3.0733999252E+01      1.0000000000E+00      obgnme               
lrr0061.141           3.0921499252E+01      1.0000000000E+00      obgnme               
lrr0061.142           3.1131299972E+01      1.0000000000E+00      obgnme               
lrr0061.143           3.1049999237E+01      1.0000000000E+00      obgnme               
lrr0061.144           3.0924200058E+01      1.0000000000E+00      obgnme               
lrr0061.145           3.1065799713E+01      1.0000000000E+00      obgnme               
lrr0061.146           3.1130199432E+01      1.0000000000E+00      obgnme               
lrr0061.147           3.0939399719E+01      1.0000000000E+00      obgnme               
lrr0061.148           3.0718099594E+01      1.0000000000E+00      obgnme               
lrr0061.149           3.0677499771E+01      1.0000000000E+00      obgnme               
lrr0061.15            3.9391700745E+01      5.0000000000E-01      obgnme               
lrr0061.150           3.0740999222E+01      1.0000000000E+00      obgnme               
lrr0061.151           3.0684799194E+01      1.0000000000E+00      obgnme               
lrr0061.152           3.0699600220E+01      1.0000000000E+00      obgnme               
lrr0061.153           3.0706699371E+01      1.0000000000E+00      obgnme               
lrr0061.154           3.0663999557E+01      1.0000000000E+00      obgnme               
lrr0061.155           3.0547500610E+01      1.0000000000E+00      obgnme               
lrr0061.156           3.0472299576E+01      1.0000000000E+00      obgnme               
lrr0061.157           3.0279399872E+01      1.0000000000E+00      obgnme               
lrr0061.158           3.0263299942E+01      1.0000000000E+00      obgnme               
lrr0061.159           3.0322700501E+01      1.0000000000E+00      obgnme               
lrr0061.16            4.0250999451E+01      5.0000000000E-01      obgnme               
lrr0061.160           3.0341199875E+01      1.0000000000E+00      obgnme               
lrr0061.161           3.0325700760E+01      1.0000000000E+00      obgnme               
lrr0061.17            4.2614799500E+01      5.0000000000E-01      obgnme               
lrr0061.18            4.5935199737E+01      5.0000000000E-01      obgnme               
lrr0061.19            4.7183498383E+01      5.0000000000E-01      obgnme               
lrr0061.2             3.2171501160E+01      5.0000000000E-01      obgnme               
lrr0061.20            4.5815799713E+01      5.0000000000E-01      obgnme               
lrr0061.21            4.3400001526E+01      5.0000000000E-01      obgnme               
lrr0061.22            4.2985198975E+01      5.0000000000E-01      obgnme               
lrr0061.23            4.3516899109E+01      5.0000000000E-01      obgnme               
lrr0061.24            4.2988498688E+01      5.0000000000E-01      obgnme               
lrr0061.25            4.1866699219E+01      5.0000000000E-01      obgnme               
lrr0061.26            4.0799598694E+01      5.0000000000E-01      obgnme               
lrr0061.27            3.9508098602E+01      5.0000000000E-01      obgnme               
lrr0061.28            3.8581501007E+01      5.0000000000E-01      obgnme               
lrr0061.29            3.8192901611E+01      5.0000000000E-01      obgnme               
lrr0061.3             3.1837299347E+01      5.0000000000E-01      obgnme               
lrr0061.30            3.8428298950E+01      5.0000000000E-01      obgnme               
lrr0061.31            3.7852901459E+01      5.0000000000E-01      obgnme               
lrr0061.32            3.7262699127E+01      5.0000000000E-01      obgnme               
lrr0061.33            3.6699001312E+01      5.0000000000E-01      obgnme               
lrr0061.34            3.6240200043E+01      5.0000000000E-01      obgnme               
lrr0061.35            3.5750999451E+01      5.0000000000E-01      obgnme               
lrr0061.36            3.5374198914E+01      5.0000000000E-01      obgnme               
lrr0061.37            3.4898498535E+01      5.0000000000E-01      obgnme               
lrr0061.38            3.4464599609E+01      5.0000000000E-01      obgnme               
lrr0061.39            3.4165798187E+01      5.0000000000E-01      obgnme               
lrr0061.4             3.1978300095E+01      5.0000000000E-01      obgnme               
lrr0061.40            3.4021301270E+01      5.0000000000E-01      obgnme               
lrr0061.41            3.3746498108E+01      5.0000000000E-01      obgnme               
lrr0061.42            3.3700801849E+01      5.0000000000E-01      obgnme               
lrr0061.43            3.3599800110E+01      5.0000000000E-01      obgnme               
lrr0061.44            3.3502498627E+01      5.0000000000E-01      obgnme               
lrr0061.45            3.3240200043E+01      5.0000000000E-01      obgnme               
lrr0061.46            3.2907699585E+01      5.0000000000E-01      obgnme               
lrr0061.47            3.2466701508E+01      5.0000000000E-01      obgnme               
lrr0061.48            3.2403499603E+01      5.0000000000E-01      obgnme               
lrr0061.49            3.2918098450E+01      5.0000000000E-01      obgnme               
lrr0061.5             3.5214801788E+01      5.0000000000E-01      obgnme               
lrr0061.50            3.3523101807E+01      5.0000000000E-01      obgnme               
lrr0061.51            3.4147300720E+01      5.0000000000E-01      obgnme               
lrr0061.52            3.3919200897E+01      5.0000000000E-01      obgnme               
lrr0061.53            3.3589599609E+01      5.0000000000E-01      obgnme               
lrr0061.54            3.3466899872E+01      5.0000000000E-01      obgnme               
lrr0061.55            3.3410800934E+01      5.0000000000E-01      obgnme               
lrr0061.56            3.3312698364E+01      5.0000000000E-01      obgnme               
lrr0061.57            3.3215198517E+01      5.0000000000E-01      obgnme               
lrr0061.58            3.3120601654E+01      5.0000000000E-01      obgnme               
lrr0061.59            3.2951698303E+01      5.0000000000E-01      obgnme               
lrr0061.6             3.8648101807E+01      5.0000000000E-01      obgnme               
lrr0061.60            3.2742698669E+01      5.0000000000E-01      obgnme               
lrr0061.61            3.2622898102E+01      5.0000000000E-01      obgnme               
lrr0061.62            3.2518299103E+01      5.0000000000E-01      obgnme               
lrr0061.63            3.2500801086E+01      5.0000000000E-01      obgnme               
lrr0061.64            3.2761001587E+01      5.0000000000E-01      obgnme               
lrr0061.65            3.5493801117E+01      5.0000000000E-01      obgnme               
lrr0061.66            4.1133499145E+01      5.0000000000E-01      obgnme               
lrr0061.67            4.4497699737E+01      5.0000000000E-01      obgnme               
lrr0061.68            4.4320999145E+01      5.0000000000E-01      obgnme               
lrr0061.69            4.3881698608E+01      5.0000000000E-01      obgnme               
lrr0061.7             4.0077301025E+01      5.0000000000E-01      obgnme               
lrr0061.70            4.7736000061E+01      5.0000000000E-01      obgnme               
lrr0061.71            5.2179798126E+01      5.0000000000E-01      obgnme               
lrr0061.72            5.3034000397E+01      5.0000000000E-01      obgnme               
lrr0061.73            5.4486698151E+01      5.0000000000E-01      obgnme               
lrr0061.74            5.4347900391E+01      5.0000000000E-01      obgnme               
lrr0061.75            5.1096500397E+01      5.0000000000E-01      obgnme               
lrr0061.76            4.9031501770E+01      5.0000000000E-01      obgnme               
lrr0061.77            4.7478698730E+01      5.0000000000E-01      obgnme               
lrr0061.78            4.5688301086E+01      5.0000000000E-01      obgnme               
lrr0061.79            4.4108699799E+01      5.0000000000E-01      obgnme               
lrr0061.8             3.8905998230E+01      5.0000000000E-01      obgnme               
lrr0061.80            4.3463500977E+01      5.0000000000E-01      obgnme               
lrr0061.81            4.3950401306E+01      5.0000000000E-01      obgnme               
lrr0061.82            4.3883998871E+01      5.0000000000E-01      obgnme               
lrr0061.83            4.3141300201E+01      5.0000000000E-01      obgnme               
lrr0061.84            4.2256000519E+01      5.0000000000E-01      obgnme               
lrr0061.85            4.1376701355E+01      5.0000000000E-01      obgnme               
lrr0061.86            4.0630599976E+01      5.0000000000E-01      obgnme               
lrr0061.87            3.9917701721E+01      5.0000000000E-01      obgnme               
lrr0061.88            3.8864601135E+01      5.0000000000E-01      obgnme               
lrr0061.89            3.7752498627E+01      5.0000000000E-01      obgnme               
lrr0061.9             3.7971900940E+01      5.0000000000E-01      obgnme               
lrr0061.90            3.7047901154E+01      5.0000000000E-01      obgnme               
lrr0061.91            3.6554199219E+01      5.0000000000E-01      obgnme               
lrr0061.92            3.6087299347E+01      5.0000000000E-01      obgnme               
lrr0061.93            3.5554798126E+01      5.0000000000E-01      obgnme               
lrr0061.94            3.5247501373E+01      5.0000000000E-01      obgnme               
lrr0061.95            3.5025001526E+01      5.0000000000E-01      obgnme               
lrr0061.96            3.4635200500E+01      5.0000000000E-01      obgnme               
lrr0061.97            3.4236000061E+01      5.0000000000E-01      obgnme               
lrr0061.98            3.3994201660E+01      5.0000000000E-01      obgnme               
lrr0061.99            3.3854198456E+01      5.0000000000E-01      obgnme               
lrr0063.161           3.0444999695E+01      1.0000000000E+00      obgnme               
lrr0063.162           3.0396699905E+01      1.0000000000E+00      obgnme               
lrr0063.163           3.0401300430E+01      1.0000000000E+00      obgnme               
lrr0063.164           3.0505399704E+01      1.0000000000E+00      obgnme               
lrr0063.165           3.0414199829E+01      1.0000000000E+00      obgnme               
lrr0063.166           3.0314599991E+01      1.0000000000E+00      obgnme               
lrr0063.167           3.0392099380E+01      1.0000000000E+00      obgnme               
lrr0063.168           3.0359199524E+01      1.0000000000E+00      obgnme               
lrr0063.169           3.0453800201E+01      1.0000000000E+00      obgnme               
lrr0063.170           3.0415800095E+01      1.0000000000E+00      obgnme               
lrr0063.171           3.0341199875E+01      1.0000000000E+00      obgnme               
lrr0063.172           3.0282899857E+01      1.0000000000E+00      obgnme               
lrr0063.173           3.0172899246E+01      1.0000000000E+00      obgnme               
lrr0063.174           3.0200799942E+01      1.0000000000E+00      obgnme               
lrr0063.175           3.0080400467E+01      1.0000000000E+00      obgnme               
lrr0063.176           2.9898799896E+01      1.0000000000E+00      obgnme               
lrr0063.177           2.9920400620E+01      1.0000000000E+00      obgnme               
lrr0063.178           2.9952100754E+01      1.0000000000E+00      obgnme               
lrr0063.179           2.9669200897E+01      1.0000000000E+00      obgnme               
lrr0063.180           2.9578300476E+01      1.0000000000E+00      obgnme               
lrr0063.181           2.9565799713E+01      1.0000000000E+00      obgnme               
lrr0063.182           2.9550399780E+01      1.0000000000E+00      obgnme               
lrr0063.183           2.9679199219E+01      1.0000000000E+00      obgnme               
lrr0063.184           2.9805000305E+01      1.0000000000E+00      obgnme               
lrr0063.185           2.9804199219E+01      1.0000000000E+00      obgnme               
lrr0063.186           2.9800399780E+01      1.0000000000E+00      obgnme               
lrr0063.187           2.9780799866E+01      1.0000000000E+00      obgnme               
lrr0063.188           2.9807500839E+01      1.0000000000E+00      obgnme               
lrr0063.189           2.9807500839E+01      1.0000000000E+00      obgnme               
lrr0063.190           3.0046699524E+01      1.0000000000E+00      obgnme               
lrr0063.191           3.1159200668E+01      1.0000000000E+00      obgnme               
lrr0063.192           3.2012100220E+01      1.0000000000E+00      obgnme               
lrr0063.193           3.2935398102E+01      1.0000000000E+00      obgnme               
lrr0063.194           3.3706199646E+01      1.0000000000E+00      obgnme               
lrr0063.195           3.4424999237E+01      1.0000000000E+00      obgnme               
lrr0063.196           3.5050399780E+01      1.0000000000E+00      obgnme               
lrr0063.197           3.5413700104E+01      1.0000000000E+00      obgnme               
lrr0063.198           3.5707099915E+01      1.0000000000E+00      obgnme               
lrr0063.199           3.6117099762E+01      1.0000000000E+00      obgnme               
lrr0063.200           3.6514999390E+01      1.0000000000E+00      obgnme               
lrr0063.201           3.6818298340E+01      1.0000000000E+00      obgnme               
lrr0063.202           3.7131698608E+01      1.0000000000E+00      obgnme               
lrr0063.203           3.7352901459E+01      1.0000000000E+00      obgnme               
lrr0063.204           3.7353298187E+01      1.0000000000E+00      obgnme               
lrr0063.205           3.7259998321E+01      1.0000000000E+00      obgnme               
lrr0063.206           3.7352100372E+01      1.0000000000E+00      obgnme               
lrr0063.207           3.7327499390E+01      1.0000000000E+00      obgnme               
lrr0063.208           3.7307098389E+01      1.0000000000E+00      obgnme               
lrr0063.209           3.7400001526E+01      1.0000000000E+00      obgnme               
lrr0063.210           3.7384998321E+01      1.0000000000E+00      obgnme               
lrr0063.211           3.7364200592E+01      1.0000000000E+00      obgnme               
lrr0063.212           3.7480400085E+01      1.0000000000E+00      obgnme               
lrr0063.213           3.7571701050E+01      1.0000000000E+00      obgnme               
lrr0063.214           3.7584999084E+01      1.0000000000E+00      obgnme               
lrr0063.215           3.7585800171E+01      1.0000000000E+00      obgnme               
lrr0063.216           3.7434600830E+01      1.0000000000E+00      obgnme               
lrr0063.217           3.7469600677E+01      1.0000000000E+00      obgnme               
lrr0063.218           3.7476699829E+01      1.0000000000E+00      obgnme               
lrr0063.219           3.7443698883E+01      1.0000000000E+00      obgnme               
lrr0063.220           3.7459999084E+01      1.0000000000E+00      obgnme               
lrr0063.221           3.7520401001E+01      1.0000000000E+00      obgnme               
lrr0063.222           3.7312500000E+01      1.0000000000E+00      obgnme               
lrr0063.223           3.7473800659E+01      1.0000000000E+00      obgnme               
lrr0063.224           3.7535800934E+01      1.0000000000E+00      obgnme               
lrr0063.225           3.7383300781E+01      1.0000000000E+00      obgnme               
lrr0063.226           3.7276199341E+01      1.0000000000E+00      obgnme               
lrr0063.227           3.7389598846E+01      1.0000000000E+00      obgnme               
lrr0063.228           3.7254199982E+01      1.0000000000E+00      obgnme               
lrr0063.229           3.7261199951E+01      1.0000000000E+00      obgnme               
lrr0063.230           3.7299999237E+01      1.0000000000E+00      obgnme               
lrr0063.231           3.7362098694E+01      1.0000000000E+00      obgnme               
lrr0063.232           3.7330001831E+01      1.0000000000E+00      obgnme               
lrr0063.233           3.7278301239E+01      1.0000000000E+00      obgnme               
lrr0063.234           3.7266300201E+01      1.0000000000E+00      obgnme               
lrr0063.235           3.7233299255E+01      1.0000000000E+00      obgnme               
lrr0063.236           3.7128700256E+01      1.0000000000E+00      obgnme               
lrr0063.237           3.7284999847E+01      1.0000000000E+00      obgnme               
lrr0063.238           3.7422500610E+01      1.0000000000E+00      obgnme               
lrr0063.239           3.7538700104E+01      1.0000000000E+00      obgnme               
lrr0063.240           3.7576198578E+01      1.0000000000E+00      obgnme               
lrr0063.241           3.7500400543E+01      1.0000000000E+00      obgnme               
lrr0063.242           3.7357898712E+01      1.0000000000E+00      obgnme               
lrr0063.243           3.7031700134E+01      1.0000000000E+00      obgnme               
lrr0063.244           3.6797500610E+01      1.0000000000E+00      obgnme               
lrr0063.245           3.6792900085E+01      1.0000000000E+00      obgnme               
lrr0063.246           3.6842899323E+01      1.0000000000E+00      obgnme               
lrr0063.247           3.6909599304E+01      1.0000000000E+00      obgnme               
lrr0063.248           3.6973300934E+01      1.0000000000E+00      obgnme               
lrr0063.249           3.7100799561E+01      1.0000000000E+00      obgnme               
lrr0063.250           3.7312099457E+01      1.0000000000E+00      obgnme               
lrr0063.251           3.7384201050E+01      1.0000000000E+00      obgnme               
lrr0063.252           3.7300399780E+01      1.0000000000E+00      obgnme               
lrr0063.253           3.7250000000E+01      1.0000000000E+00      obgnme               
lrr0063.254           3.7294200897E+01      1.0000000000E+00      obgnme               
lrr0063.255           3.7017101288E+01      1.0000000000E+00      obgnme               
lrr0063.256           3.6928699493E+01      1.0000000000E+00      obgnme               
lrr0063.257           3.7089199066E+01      1.0000000000E+00      obgnme               
lrr0063.258           3.7039199829E+01      1.0000000000E+00      obgnme               
lrr0063.259           3.6863800049E+01      1.0000000000E+00      obgnme               
lrr0063.260           3.6715801239E+01      1.0000000000E+00      obgnme               
lrr0063.261           3.6719600677E+01      1.0000000000E+00      obgnme               
lrr0063.262           3.6614200592E+01      1.0000000000E+00      obgnme               
lrr0063.263           3.6631698608E+01      1.0000000000E+00      obgnme               
lrr0063.264           3.6523300171E+01      1.0000000000E+00      obgnme               
lrr0063.265           3.6566699982E+01      1.0000000000E+00      obgnme               
lrr0063.266           3.6703300476E+01      1.0000000000E+00      obgnme               
lrr0063.267           3.6680400848E+01      1.0000000000E+00      obgnme               
lrr0063.268           3.6592498779E+01      1.0000000000E+00      obgnme               
lrr0063.269           3.6517101288E+01      1.0000000000E+00      obgnme               
lrr0063.270           3.6413700104E+01      1.0000000000E+00      obgnme               
lrr0063.271           3.6350399017E+01      1.0000000000E+00      obgnme               
lrr0063.272           3.6512500763E+01      1.0000000000E+00      obgnme               
lrr0063.273           3.6639999390E+01      1.0000000000E+00      obgnme               
lrr0063.274           3.6735000610E+01      1.0000000000E+00      obgnme               
lrr0063.275           3.6769199371E+01      1.0000000000E+00      obgnme               
lrr0063.276           3.6840400696E+01      1.0000000000E+00      obgnme               
lrr0063.277           3.7007099152E+01      1.0000000000E+00      obgnme               
lrr0063.278           3.7002498627E+01      1.0000000000E+00      obgnme               
lrr0063.279           3.7103698730E+01      1.0000000000E+00      obgnme               
lrr0063.280           3.6989200592E+01      1.0000000000E+00      obgnme               
lrr0063.281           3.6872501373E+01      1.0000000000E+00      obgnme               
lrr0063.282           3.6873298645E+01      1.0000000000E+00      obgnme               
lrr0063.283           3.6774600983E+01      1.0000000000E+00      obgnme               
lrr0063.284           3.6884998321E+01      1.0000000000E+00      obgnme               
lrr0063.285           3.6911701202E+01      1.0000000000E+00      obgnme               
lrr0063.286           3.6937099457E+01      1.0000000000E+00      obgnme               
lrr0063.287           3.6822898865E+01      1.0000000000E+00      obgnme               
lrr0063.288           3.6935798645E+01      1.0000000000E+00      obgnme               
lrr0063.289           3.6956699371E+01      1.0000000000E+00      obgnme               
lrr0063.290           3.7007900238E+01      1.0000000000E+00      obgnme               
lrr0063.291           3.7369998932E+01      1.0000000000E+00      obgnme               