pcf
* control data
             restart      regularization
        12     36474         5        12         7
         2         1              single               point
   2.000000E+01  -3.000000E+00   3.000000E-01   1.000000E-02        -7
   1.000000E+01   1.000000E+01   1.000000E-03
   1.000000E-01
         0   1.000000E-02         3         3   1.000000E-02         3
         0         0         0
* singular value decomposition
         1
  10000000    1.000000E-06
1
* parameter groups
hk                     relative              1.0000000000E-02      0.0 switch                2.0000000000E+00      parabolic             1.0000000000E-05      5.0000000000E-01      smaller              
ss                     relative              1.0000000000E-02      0.0 switch                2.0000000000E+00      parabolic             1.0000000000E-05      5.0000000000E-01      smaller              
vk                     relative              1.0000000000E-02      0.0 switch                2.0000000000E+00      parabolic             1.0000000000E-05      5.0000000000E-01      smaller              
sy                     relative              1.0000000000E-02      0.0 switch                2.0000000000E+00      parabolic             1.0000000000E-05      5.0000000000E-01      smaller              
swrk                   relative              1.0000000000E-02      0.0 switch                2.0000000000E+00      parabolic             1.0000000000E-05      5.0000000000E-01      smaller              
* parameter data
hk_1                  log                   factor                3.1558024000E-01      1.1000000000E-10      1.1000000000E+10      hk                    1.0000000000E+00      0.0000000000E+00      1          
hk_2                  log                   factor                2.6771097000E-05      1.1000000000E-10      1.1000000000E+10      hk                    1.0000000000E+00      0.0000000000E+00      1          
hk_3                  log                   factor                3.8253208000E+00      1.1000000000E-10      1.1000000000E+10      hk                    1.0000000000E+00      0.0000000000E+00      1          
ss_1                  log                   factor                1.0000000000E-03      1.0000000000E-06      1.0000000000E-03      ss                    1.0000000000E+00      0.0000000000E+00      1          
ss_2                  log                   factor                1.0000000000E-03      1.0000000000E-06      1.0000000000E-03      ss                    1.0000000000E+00      0.0000000000E+00      1          
ss_3                  log                   factor                1.0024035000E-05      1.0000000000E-05      1.0000000000E-03      ss                    1.0000000000E+00      0.0000000000E+00      1          
swrk                  log                   factor                2.6907470000E-06      1.4000000000E-08      1.4000000000E-04      swrk                  1.0000000000E+00      0.0000000000E+00      1          
sy_1                  log                   factor                3.0000000000E-01      5.0000000000E-02      3.0000000000E-01      sy                    1.0000000000E+00      0.0000000000E+00      1          
sy_2                  log                   factor                3.0000000000E-01      5.0000000000E-02      3.0000000000E-01      sy                    1.0000000000E+00      0.0000000000E+00      1          
vk_1                  log                   factor                1.7376380000E-01      1.0000000000E-05      1.0000000000E+05      vk                    1.0000000000E+00      0.0000000000E+00      1          
vk_2                  log                   factor                3.3898608000E-03      1.0000000000E-05      1.0000000000E+05      vk                    1.0000000000E+00      0.0000000000E+00      1          
vk_3                  log                   factor                1.2654381000E-02      1.0000000000E-05      1.0000000000E+05      vk                    1.0000000000E+00      0.0000000000E+00      1          
* observation groups
drawdown             
headobs              
regulhk              
regulss              
regulswrk            
regulsy              
regulvk              
* observation data
d0061                 3.0325700760E+01      1.0000000000E+00      drawdown             
d0061.1               3.7614200592E+01      0.0000000000E+00      drawdown             
d0061.10              1.8379974365E-01      5.0000000000E-01      drawdown             
d0061.100             -1.4592018127E+00     5.0000000000E-01      drawdown             
d0061.101             3.2301300049E+01      0.0000000000E+00      drawdown             
d0061.102             -1.8050003052E-01     1.0000000000E+00      drawdown             
d0061.103             -3.5840034485E-01     1.0000000000E+00      drawdown             
d0061.104             -5.5879974365E-01     1.0000000000E+00      drawdown             
d0061.105             -6.9960021973E-01     1.0000000000E+00      drawdown             
d0061.106             3.1463800430E+01      0.0000000000E+00      drawdown             
d0061.107             -9.5100402832E-02     1.0000000000E+00      drawdown             
d0061.108             -1.9000053406E-01     1.0000000000E+00      drawdown             
d0061.109             -2.9669952393E-01     1.0000000000E+00      drawdown             
d0061.11              3.5349601746E+01      0.0000000000E+00      drawdown             
d0061.110             -4.3000030518E-01     1.0000000000E+00      drawdown             
d0061.111             3.0938699722E+01      0.0000000000E+00      drawdown             
d0061.112             -7.8300476074E-02     1.0000000000E+00      drawdown             
d0061.113             -1.4329910278E-01     1.0000000000E+00      drawdown             
d0061.114             -1.4249992371E-01     1.0000000000E+00      drawdown             
d0061.115             -1.1499977112E-01     1.0000000000E+00      drawdown             
d0061.116             3.0811300278E+01      0.0000000000E+00      drawdown             
d0061.117             -4.0500640869E-02     1.0000000000E+00      drawdown             
d0061.118             -1.1709976196E-01     1.0000000000E+00      drawdown             
d0061.119             -2.2089958191E-01     1.0000000000E+00      drawdown             
d0061.12              2.0980834961E-03      5.0000000000E-01      drawdown             
d0061.120             -3.2089996338E-01     1.0000000000E+00      drawdown             
d0061.121             3.0407100678E+01      0.0000000000E+00      drawdown             
d0061.122             -5.2900314331E-02     1.0000000000E+00      drawdown             
d0061.123             -1.3330078125E-01     1.0000000000E+00      drawdown             
d0061.124             -2.2039985657E-01     1.0000000000E+00      drawdown             
d0061.125             -2.6340103149E-01     1.0000000000E+00      drawdown             
d0061.126             3.0119600296E+01      0.0000000000E+00      drawdown             
d0061.127             -7.5799942017E-02     1.0000000000E+00      drawdown             
d0061.128             -1.6959953308E-01     1.0000000000E+00      drawdown             
d0061.129             -2.5130081177E-01     1.0000000000E+00      drawdown             
d0061.13              -5.9600830078E-02     5.0000000000E-01      drawdown             
d0061.130             -2.2789955139E-01     1.0000000000E+00      drawdown             
d0061.131             2.9931699753E+01      0.0000000000E+00      drawdown             
d0061.132             2.0799636841E-02      1.0000000000E+00      drawdown             
d0061.133             -4.3800354004E-02     1.0000000000E+00      drawdown             
d0061.134             -9.7099304199E-02     1.0000000000E+00      drawdown             
d0061.135             -1.1779975891E-01     1.0000000000E+00      drawdown             
d0061.136             2.9806200028E+01      0.0000000000E+00      drawdown             
d0061.137             -4.5000076294E-02     1.0000000000E+00      drawdown             
d0061.138             -4.5799255371E-02     1.0000000000E+00      drawdown             
d0061.139             -7.9099655151E-02     1.0000000000E+00      drawdown             
d0061.14              -2.2630310059E-01     5.0000000000E-01      drawdown             
d0061.140             -1.5040016174E-01     1.0000000000E+00      drawdown             
d0061.141             2.9917100906E+01      0.0000000000E+00      drawdown             
d0061.142             4.2409896851E-01      1.0000000000E+00      drawdown             
d0061.143             6.9619941711E-01      1.0000000000E+00      drawdown             
d0061.144             1.0695991516E+00      1.0000000000E+00      drawdown             
d0061.145             1.2307987213E+00      1.0000000000E+00      drawdown             
d0061.146             3.1115800857E+01      0.0000000000E+00      drawdown             
d0061.147             -1.6200065613E-01     1.0000000000E+00      drawdown             
d0061.148             -2.7370071411E-01     1.0000000000E+00      drawdown             
d0061.149             -3.0960083008E-01     1.0000000000E+00      drawdown             
d0061.15              -3.7460327148E-01     5.0000000000E-01      drawdown             
d0061.150             -3.5870170593E-01     1.0000000000E+00      drawdown             
d0061.151             3.0726200104E+01      0.0000000000E+00      drawdown             
d0061.152             -9.2899322510E-02     1.0000000000E+00      drawdown             
d0061.153             -8.3700180054E-02     1.0000000000E+00      drawdown             
d0061.154             2.0709991455E-01      1.0000000000E+00      drawdown             
d0061.155             5.8629989624E-01      1.0000000000E+00      drawdown             
d0061.156             3.1658300400E+01      0.0000000000E+00      drawdown             
d0061.157             5.1589775085E-01      1.0000000000E+00      drawdown             
d0061.158             1.0903987884E+00      1.0000000000E+00      drawdown             
d0061.159             1.4299983978E+00      1.0000000000E+00      drawdown             
d0061.16              3.4839599609E+01      0.0000000000E+00      drawdown             
d0061.160             1.6154994965E+00      1.0000000000E+00      drawdown             
d0061.161             3.3429599762E+01      0.0000000000E+00      drawdown             
d0061.162             1.4120101929E-01      1.0000000000E+00      drawdown             
d0061.163             2.2079849243E-01      1.0000000000E+00      drawdown             
d0061.164             1.7710113525E-01      1.0000000000E+00      drawdown             
d0061.165             1.1209869385E-01      1.0000000000E+00      drawdown             
d0061.166             3.3475799561E+01      0.0000000000E+00      drawdown             
d0061.167             -2.3700714111E-02     1.0000000000E+00      drawdown             
d0061.168             1.5130233765E-01      1.0000000000E+00      drawdown             
d0061.169             3.5630035400E-01      1.0000000000E+00      drawdown             
d0061.17              -1.6999816894E-01     5.0000000000E-01      drawdown             
d0061.170             5.7920074463E-01      1.0000000000E+00      drawdown             
d0061.171             3.4304599762E+01      0.0000000000E+00      drawdown             
d0061.172             2.3709869385E-01      1.0000000000E+00      drawdown             
d0061.173             3.3790206909E-01      1.0000000000E+00      drawdown             
d0061.174             -2.1080017090E-01     1.0000000000E+00      drawdown             
d0061.175             2.7920150757E-01      1.0000000000E+00      drawdown             
d0061.176             3.4796199799E+01      0.0000000000E+00      drawdown             
d0061.177             1.5999984741E-01      1.0000000000E+00      drawdown             
d0061.178             2.2420120239E-01      1.0000000000E+00      drawdown             
d0061.179             3.3420181274E-01      1.0000000000E+00      drawdown             
d0061.18              -3.3459854126E-01     5.0000000000E-01      drawdown             
d0061.180             4.1419982910E-01      1.0000000000E+00      drawdown             
d0061.181             3.5210800171E+01      0.0000000000E+00      drawdown             
d0061.182             -4.7901153564E-02     1.0000000000E+00      drawdown             
d0061.183             -7.1601867676E-02     1.0000000000E+00      drawdown             
d0061.184             -8.4499359131E-02     1.0000000000E+00      drawdown             
d0061.185             -2.6599884033E-02     1.0000000000E+00      drawdown             
d0061.186             3.5267501831E+01      0.0000000000E+00      drawdown             
d0061.187             1.1669921875E-01      1.0000000000E+00      drawdown             
d0061.188             2.7039718628E-01      1.0000000000E+00      drawdown             
d0061.189             5.4209899902E-01      1.0000000000E+00      drawdown             
d0061.19              -4.3090057373E-01     5.0000000000E-01      drawdown             
d0061.190             8.4079742432E-01      1.0000000000E+00      drawdown             
d0061.191             3.6305400848E+01      0.0000000000E+00      drawdown             
d0061.192             2.3419952393E-01      1.0000000000E+00      drawdown             
d0061.193             4.7669982910E-01      1.0000000000E+00      drawdown             
d0061.194             6.7210006714E-01      1.0000000000E+00      drawdown             
d0061.195             8.2789993286E-01      1.0000000000E+00      drawdown             
d0061.196             3.6354999542E+01      0.0000000000E+00      drawdown             
d0061.197             -1.1142005920E+00     1.0000000000E+00      drawdown             
d0061.198             -1.6571006775E+00     1.0000000000E+00      drawdown             
d0061.199             -1.9337997437E+00     1.0000000000E+00      drawdown             
d0061.2               -1.7388000488E+00     5.0000000000E-01      drawdown             
d0061.20              -5.7379913330E-01     5.0000000000E-01      drawdown             
d0061.200             -2.1974983215E+00     1.0000000000E+00      drawdown             
d0061.201             3.3938800812E+01      0.0000000000E+00      drawdown             
d0061.202             -2.4209976196E-01     1.0000000000E+00      drawdown             
d0061.203             -4.1880035400E-01     1.0000000000E+00      drawdown             
d0061.204             -6.5920257568E-01     1.0000000000E+00      drawdown             
d0061.205             -9.6459960938E-01     1.0000000000E+00      drawdown             
d0061.206             3.2770000458E+01      0.0000000000E+00      drawdown             
d0061.207             -1.1170196533E-01     1.0000000000E+00      drawdown             
d0061.208             -1.8579864502E-01     1.0000000000E+00      drawdown             
d0061.209             -2.9920196533E-01     1.0000000000E+00      drawdown             
d0061.21              3.4152500153E+01      0.0000000000E+00      drawdown             
d0061.210             -4.0869903564E-01     1.0000000000E+00      drawdown             
d0061.211             3.2262901306E+01      0.0000000000E+00      drawdown             
d0061.212             -1.4210128784E-01     1.0000000000E+00      drawdown             
d0061.213             -4.6370124817E-01     1.0000000000E+00      drawdown             
d0061.214             -9.2620086670E-01     1.0000000000E+00      drawdown             
d0061.215             -1.3821010590E+00     1.0000000000E+00      drawdown             
d0061.216             3.0464199066E+01      0.0000000000E+00      drawdown             
d0061.217             -3.4419822693E-01     1.0000000000E+00      drawdown             
d0061.218             -6.6709899902E-01     1.0000000000E+00      drawdown             
d0061.219             -1.0583992004E+00     1.0000000000E+00      drawdown             
d0061.22              -7.3699951172E-02     5.0000000000E-01      drawdown             
d0061.220             -1.4633998871E+00     1.0000000000E+00      drawdown             
d0061.221             2.8228300095E+01      0.0000000000E+00      drawdown             
d0061.222             -8.9330101013E-01     1.0000000000E+00      drawdown             
d0061.223             -1.4558010101E+00     1.0000000000E+00      drawdown             
d0061.224             -1.9421005249E+00     1.0000000000E+00      drawdown             
d0061.225             -2.4283008575E+00     1.0000000000E+00      drawdown             
d0061.226             2.5320400238E+01      0.0000000000E+00      drawdown             
d0061.227             -4.8080062866E-01     1.0000000000E+00      drawdown             
d0061.228             -9.5660018921E-01     1.0000000000E+00      drawdown             
d0061.229             -1.4307994843E+00     1.0000000000E+00      drawdown             
d0061.23              1.4598846435E-02      5.0000000000E-01      drawdown             
d0061.230             -2.3575000763E+00     1.0000000000E+00      drawdown             
d0061.231             2.2049999237E+01      0.0000000000E+00      drawdown             
d0061.232             -6.6829872131E-01     1.0000000000E+00      drawdown             
d0061.233             -1.1245994568E+00     1.0000000000E+00      drawdown             
d0061.234             -1.5849990845E+00     1.0000000000E+00      drawdown             
d0061.235             -2.0207996368E+00     1.0000000000E+00      drawdown             
d0061.236             1.9569200516E+01      0.0000000000E+00      drawdown             
d0061.237             3.7890987396E+00      1.0000000000E+00      drawdown             
d0061.238             3.2888298035E+01      1.0000000000E+00      drawdown             
d0061.239             3.2028297424E+01      1.0000000000E+00      drawdown             
d0061.24              1.2170028687E-01      5.0000000000E-01      drawdown             
d0061.240             3.1181600571E+01      1.0000000000E+00      drawdown             
d0061.241             4.9925800323E+01      0.0000000000E+00      drawdown             
d0061.242             -7.8870010376E-01     1.0000000000E+00      drawdown             
d0061.243             -1.6040992737E+00     1.0000000000E+00      drawdown             
d0061.244             -2.4104003906E+00     1.0000000000E+00      drawdown             
d0061.245             -2.6399993896E+00     1.0000000000E+00      drawdown             
d0061.246             4.6884601593E+01      0.0000000000E+00      drawdown             
d0061.247             -5.5710220337E-01     1.0000000000E+00      drawdown             
d0061.248             -1.0813026428E+00     1.0000000000E+00      drawdown             
d0061.249             -1.7829017639E+00     1.0000000000E+00      drawdown             
d0061.25              2.0750045776E-01      5.0000000000E-01      drawdown             
d0061.250             -2.5071029663E+00     1.0000000000E+00      drawdown             
d0061.251             4.3781700134E+01      0.0000000000E+00      drawdown             
d0061.252             -7.3040008545E-01     1.0000000000E+00      drawdown             
d0061.253             -1.5988006592E+00     1.0000000000E+00      drawdown             
d0061.254             -2.4053993225E+00     1.0000000000E+00      drawdown             
d0061.255             -3.1155014038E+00     1.0000000000E+00      drawdown             
d0061.256             3.9931701660E+01      0.0000000000E+00      drawdown             
d0061.257             -6.5880203247E-01     1.0000000000E+00      drawdown             
d0061.258             -1.3267021179E+00     1.0000000000E+00      drawdown             
d0061.259             -2.0888023376E+00     1.0000000000E+00      drawdown             
d0061.26              3.4422100067E+01      0.0000000000E+00      drawdown             
d0061.260             -2.8271026611E+00     1.0000000000E+00      drawdown             
d0061.261             3.6394599915E+01      0.0000000000E+00      drawdown             
d0061.262             -8.4840011597E-01     1.0000000000E+00      drawdown             
d0061.263             -1.5279006958E+00     1.0000000000E+00      drawdown             
d0061.264             -2.1749992371E+00     1.0000000000E+00      drawdown             
d0061.265             -2.9395980835E+00     1.0000000000E+00      drawdown             
d0061.266             3.2722900391E+01      0.0000000000E+00      drawdown             
d0061.267             -8.2209968567E-01     1.0000000000E+00      drawdown             
d0061.268             -1.5562000275E+00     1.0000000000E+00      drawdown             
d0061.269             -1.9078998566E+00     1.0000000000E+00      drawdown             
d0061.27              -8.1298828125E-02     5.0000000000E-01      drawdown             
d0061.270             -2.0454006195E+00     1.0000000000E+00      drawdown             
d0061.271             3.0750799179E+01      0.0000000000E+00      drawdown             
d0061.272             -1.2159919739E-01     1.0000000000E+00      drawdown             
d0061.273             -1.9709968567E-01     1.0000000000E+00      drawdown             
d0061.274             3.4008026123E-03      1.0000000000E+00      drawdown             
d0061.275             2.0630073547E-01      1.0000000000E+00      drawdown             
d0061.276             3.0926300049E+01      0.0000000000E+00      drawdown             
d0061.277             -1.6379928589E-01     1.0000000000E+00      drawdown             
d0061.278             -2.1459960938E-01     1.0000000000E+00      drawdown             
d0061.279             -2.5169944763E-01     1.0000000000E+00      drawdown             
d0061.28              -1.0079956055E-01     5.0000000000E-01      drawdown             
d0061.280             -2.8960037231E-01     1.0000000000E+00      drawdown             
d0061.281             3.0724599838E+01      0.0000000000E+00      drawdown             
d0061.282             9.2899322510E-02      1.0000000000E+00      drawdown             
d0061.283             8.1199645996E-02      1.0000000000E+00      drawdown             
d0061.284             3.0399322510E-02      1.0000000000E+00      drawdown             
d0061.285             2.2100448608E-02      1.0000000000E+00      drawdown             
d0061.286             3.0737100601E+01      0.0000000000E+00      drawdown             
d0061.287             -1.4200210571E-02     1.0000000000E+00      drawdown             
d0061.288             1.9159889221E-01      1.0000000000E+00      drawdown             
d0061.289             2.2449874878E-01      1.0000000000E+00      drawdown             
d0061.29              -4.2499542236E-02     5.0000000000E-01      drawdown             
d0061.290             2.9019927978E-01      1.0000000000E+00      drawdown             
d0061.291             3.0991899490E+01      0.0000000000E+00      drawdown             
d0061.292             4.2301177978E-02      1.0000000000E+00      drawdown             
d0061.293             2.1619987488E-01      1.0000000000E+00      drawdown             
d0061.294             1.9589996338E-01      1.0000000000E+00      drawdown             
d0061.295             1.1289978027E-01      1.0000000000E+00      drawdown             
d0061.296             3.0952100754E+01      0.0000000000E+00      drawdown             
d0061.297             1.8899917602E-02      1.0000000000E+00      drawdown             
d0061.298             3.4169960022E-01      1.0000000000E+00      drawdown             
d0061.299             3.4469985962E-01      1.0000000000E+00      drawdown             
d0061.3               -2.3455009460E+00     5.0000000000E-01      drawdown             
d0061.30              7.9002380371E-03      5.0000000000E-01      drawdown             
d0061.300             3.9379882812E-01      1.0000000000E+00      drawdown             
d0061.301             3.1322999954E+01      0.0000000000E+00      drawdown             
d0061.302             -1.4710044861E-01     1.0000000000E+00      drawdown             
d0061.303             -3.5249900818E-01     1.0000000000E+00      drawdown             
d0061.304             -8.5880088806E-01     1.0000000000E+00      drawdown             
d0061.305             -8.4059906006E-01     1.0000000000E+00      drawdown             
d0061.306             3.0356000900E+01      0.0000000000E+00      drawdown             
d0061.307             -2.1050071716E-01     1.0000000000E+00      drawdown             
d0061.308             -4.0340042114E-01     1.0000000000E+00      drawdown             
d0061.309             -4.9390029907E-01     1.0000000000E+00      drawdown             
d0061.31              3.4414600372E+01      0.0000000000E+00      drawdown             
d0061.310             -5.0890159607E-01     1.0000000000E+00      drawdown             
d0061.311             2.9700199127E+01      0.0000000000E+00      drawdown             
d0061.312             -2.0349884033E-01     1.0000000000E+00      drawdown             
d0061.313             -5.1369857788E-01     1.0000000000E+00      drawdown             
d0061.314             -5.6889915466E-01     1.0000000000E+00      drawdown             
d0061.315             -4.6209907532E-01     1.0000000000E+00      drawdown             
d0061.316             2.9243099213E+01      0.0000000000E+00      drawdown             
d0061.317             1.7900085449E-01      1.0000000000E+00      drawdown             
d0061.318             2.5170135498E-01      1.0000000000E+00      drawdown             
d0061.319             3.7440109253E-01      1.0000000000E+00      drawdown             
d0061.32              -6.0401916504E-02     5.0000000000E-01      drawdown             
d0061.320             3.3209991455E-01      1.0000000000E+00      drawdown             
d0061.321             2.8725599289E+01      0.0000000000E+00      drawdown             
d0061.322             1.6460037231E-01      1.0000000000E+00      drawdown             
d0061.323             4.8670005798E-01      1.0000000000E+00      drawdown             
d0061.324             6.8060111999E-01      1.0000000000E+00      drawdown             
d0061.325             7.0190048218E-01      1.0000000000E+00      drawdown             
d0061.326             2.9757299423E+01      0.0000000000E+00      drawdown             
d0061.327             2.2920036316E-01      1.0000000000E+00      drawdown             
d0061.328             4.3120002747E-01      1.0000000000E+00      drawdown             
d0061.329             2.3789978027E-01      1.0000000000E+00      drawdown             
d0061.33              -1.7013549805E-03     5.0000000000E-01      drawdown             
d0061.330             -6.7499160767E-02     1.0000000000E+00      drawdown             
d0061.331             2.9443500519E+01      0.0000000000E+00      drawdown             
d0061.332             -2.3450088501E-01     1.0000000000E+00      drawdown             
d0061.333             9.5699310303E-02      1.0000000000E+00      drawdown             
d0061.334             3.3629989624E-01      1.0000000000E+00      drawdown             
d0061.335             1.6880035400E-01      1.0000000000E+00      drawdown             
d0061.336             2.9767099380E+01      0.0000000000E+00      drawdown             
d0061.337             2.0262012482E+00      1.0000000000E+00      drawdown             
d0061.338             3.5529003143E+00      1.0000000000E+00      drawdown             
d0061.339             4.0569019318E+00      1.0000000000E+00      drawdown             
d0061.34              -4.2499542236E-02     5.0000000000E-01      drawdown             
d0061.340             5.2892017364E+00      1.0000000000E+00      drawdown             
d0061.341             3.4355400085E+01      0.0000000000E+00      drawdown             
d0061.342             -6.1330032349E-01     1.0000000000E+00      drawdown             
d0061.343             -1.1048011780E+00     1.0000000000E+00      drawdown             
d0061.344             9.9983215332E-03      1.0000000000E+00      drawdown             
d0061.345             1.3390598297E+01      1.0000000000E+00      drawdown             
d0061.346             5.6094600677E+01      0.0000000000E+00      drawdown             
d0061.347             -6.9472999573E+00     1.0000000000E+00      drawdown             
d0061.348             -1.1449001312E+01     1.0000000000E+00      drawdown             
d0061.349             -1.1663299561E+01     1.0000000000E+00      drawdown             
d0061.35              -1.3209915161E-01     5.0000000000E-01      drawdown             
d0061.350             -1.0561901092E+01     1.0000000000E+00      drawdown             
d0061.351             4.6494400024E+01      0.0000000000E+00      drawdown             
d0061.352             -1.0661010742E+00     1.0000000000E+00      drawdown             
d0061.353             2.5500106812E-01      1.0000000000E+00      drawdown             
d0061.354             -8.5570144653E-01     1.0000000000E+00      drawdown             
d0061.355             -2.1194000244E+00     1.0000000000E+00      drawdown             
d0061.356             4.2684398651E+01      0.0000000000E+00      drawdown             
d0061.357             -1.6250000000E+00     1.0000000000E+00      drawdown             
d0061.358             -2.8560981751E+00     1.0000000000E+00      drawdown             
d0061.359             -3.8638000488E+00     1.0000000000E+00      drawdown             
d0061.36              3.4284599304E+01      0.0000000000E+00      drawdown             
d0061.360             -4.6797981262E+00     1.0000000000E+00      drawdown             