# BAS6 package for MODFLOW-2005 generated by Flopy 3.3.5
STOPERROR  5000000
open/close ibound/lay1.txt 1 (FREE)   -1
open/close ibound/lay2.txt 1 (FREE)   -1
open/close ibound/lay3.txt 1 (FREE)   -1
-999.0
OPEN/CLOSE inputs/start_head_lay1.txt 1.00 (FREE)   -1          #start_head_lay1
OPEN/CLOSE inputs/start_head_lay2.txt 1.00 (FREE)   -1          #start_head_lay1
OPEN/CLOSE inputs/start_head_lay3.txt 1.00 (FREE)   -1          #start_head_lay1