# DIS package for MODFLOW-2005 generated by Flopy 3.3.5
         3       187       132       3286         1         1
  0  0  0
CONSTANT    200                           #delr
CONSTANT    200                           #delc
OPEN/CLOSE inputs\lay_1_top.csv 1.00 (FREE)   -1          #model_top
OPEN/CLOSE inputs\lay_1_bot.csv 1.00 (FREE)   -1          #model_top
OPEN/CLOSE inputs\lay_2_bot.csv 1.00 (FREE)   -1          #model_top
OPEN/CLOSE inputs\lay_3_bot.csv 1.00 (FREE)   -1          #model_top
 86400.000000            6 1.000000  TR
  86400.000000            6 1.000000  TR 
  86400.000000            6 1.000000  TR 
  86400.000000            6 1.000000  TR 
  86400.000000            6 1.000000  TR 
  86400.000000            6 1.000000  TR 
  86400.000000            6 1.000000  TR 
  86400.000000            6 1.000000  TR 
  86400.000000            6 1.000000  TR 
  86400.000000            6 1.000000  TR 
  86400.000000            6 1.000000  TR 
  86400.000000            6 1.000000  TR 
  86400.000000            6 1.000000  TR 
  86400.000000            6 1.000000  TR 
  86400.000000            6 1.000000  TR 
  86400.000000            6 1.000000  TR 
  86400.000000            6 1.000000  TR 
  86400.000000            6 1.000000  TR 
  86400.000000            6 1.000000  TR 
  86400.000000            6 1.000000  TR 
  86400.000000            6 1.000000  TR 
  86400.000000            6 1.000000  TR 
  86400.000000            6 1.000000  TR 
  86400.000000            6 1.000000  TR 
  86400.000000            6 1.000000  TR 
  86400.000000            6 1.000000  TR 
  86400.000000            6 1.000000  TR 
  86400.000000            6 1.000000  TR 
  86400.000000            6 1.000000  TR 
  86400.000000            6 1.000000  TR 
  86400.000000            6 1.000000  TR 
  86400.000000            6 1.000000  TR 
  86400.000000            6 1.000000  TR 
  86400.000000            6 1.000000  TR 
  86400.000000            6 1.000000  TR 
  86400.000000            6 1.000000  TR 
  86400.000000            6 1.000000  TR 
  86400.000000            6 1.000000  TR 
  86400.000000            6 1.000000  TR 
  86400.000000            6 1.000000  TR 
  86400.000000            6 1.000000  TR 
  86400.000000            6 1.000000  TR 
  86400.000000            6 1.000000  TR 
  86400.000000            6 1.000000  TR 
  86400.000000            6 1.000000  TR 
  86400.000000            6 1.000000  TR 
  86400.000000            6 1.000000  TR 
  86400.000000            6 1.000000  TR 
  86400.000000            6 1.000000  TR 
  86400.000000            6 1.000000  TR 
  86400.000000            6 1.000000  TR 
  86400.000000            6 1.000000  TR 
  86400.000000            6 1.000000  TR 
  86400.000000            6 1.000000  TR 
  86400.000000            6 1.000000  TR 
  86400.000000            6 1.000000  TR 
  86400.000000            6 1.000000  TR 
  86400.000000            6 1.000000  TR 
  86400.000000            6 1.000000  TR 
  86400.000000            6 1.000000  TR 
  86400.000000            6 1.000000  TR 
  86400.000000            6 1.000000  TR 
  86400.000000            6 1.000000  TR 
  86400.000000            6 1.000000  TR 
  86400.000000            6 1.000000  TR 
  86400.000000            6 1.000000  TR 
  86400.000000            6 1.000000  TR 
  86400.000000            6 1.000000  TR 
  86400.000000            6 1.000000  TR 
  86400.000000            6 1.000000  TR 
  86400.000000            6 1.000000  TR 
  86400.000000            6 1.000000  TR 
  86400.000000            6 1.000000  TR 
  86400.000000            6 1.000000  TR 
  86400.000000            6 1.000000  TR 
  86400.000000            6 1.000000  TR 
  86400.000000            6 1.000000  TR 
  86400.000000            6 1.000000  TR 
  86400.000000            6 1.000000  TR 
  86400.000000            6 1.000000  TR 
  86400.000000            6 1.000000  TR 
  86400.000000            6 1.000000  TR 
  86400.000000            6 1.000000  TR 
  86400.000000            6 1.000000  TR 
  86400.000000            6 1.000000  TR 
  86400.000000            6 1.000000  TR 
  86400.000000            6 1.000000  TR 
  86400.000000            6 1.000000  TR 
  86400.000000            6 1.000000  TR 
  86400.000000            6 1.000000  TR 
  86400.000000            6 1.000000  TR 
  86400.000000            6 1.000000  TR 
  86400.000000            6 1.000000  TR 
  86400.000000            6 1.000000  TR 
  86400.000000            6 1.000000  TR 
  86400.000000            6 1.000000  TR 
  86400.000000            6 1.000000  TR 
  86400.000000            6 1.000000  TR 
  86400.000000            6 1.000000  TR 
  86400.000000            6 1.000000  TR 
  86400.000000            6 1.000000  TR 
  86400.000000            6 1.000000  TR 
  86400.000000            6 1.000000  TR 
  86400.000000            6 1.000000  TR 
  86400.000000            6 1.000000  TR 
  86400.000000            6 1.000000  TR 
  86400.000000            6 1.000000  TR 
  86400.000000            6 1.000000  TR 
  86400.000000            6 1.000000  TR 
 86400.000000            6 1.000000  TR
  86400.000000            6 1.000000  TR
  86400.000000            6 1.000000  TR
  86400.000000            6 1.000000  TR
  86400.000000            6 1.000000  TR
  86400.000000            6 1.000000  TR
  86400.000000            6 1.000000  TR
  86400.000000            6 1.000000  TR
  86400.000000            6 1.000000  TR
  86400.000000            6 1.000000  TR
  86400.000000            6 1.000000  TR
  86400.000000            6 1.000000  TR
  86400.000000            6 1.000000  TR
  86400.000000            6 1.000000  TR
  86400.000000            6 1.000000  TR
  86400.000000            6 1.000000  TR
  86400.000000            6 1.000000  TR
  86400.000000            6 1.000000  TR
  86400.000000            6 1.000000  TR
  86400.000000            6 1.000000  TR
  86400.000000            6 1.000000  TR
  86400.000000            6 1.000000  TR
  86400.000000            6 1.000000  TR
  86400.000000            6 1.000000  TR
  86400.000000            6 1.000000  TR
  86400.000000            6 1.000000  TR
  86400.000000            6 1.000000  TR
  86400.000000            6 1.000000  TR
  86400.000000            6 1.000000  TR
  86400.000000            6 1.000000  TR
  86400.000000            6 1.000000  TR
  86400.000000            6 1.000000  TR
  86400.000000            6 1.000000  TR
  86400.000000            6 1.000000  TR
  86400.000000            6 1.000000  TR
  86400.000000            6 1.000000  TR
  86400.000000            6 1.000000  TR
  86400.000000            6 1.000000  TR
  86400.000000            6 1.000000  TR
  86400.000000            6 1.000000  TR
  86400.000000            6 1.000000  TR
  86400.000000            6 1.000000  TR
  86400.000000            6 1.000000  TR
  86400.000000            6 1.000000  TR
  86400.000000            6 1.000000  TR
  86400.000000            6 1.000000  TR
  86400.000000            6 1.000000  TR
  86400.000000            6 1.000000  TR
  86400.000000            6 1.000000  TR
  86400.000000            6 1.000000  TR
  86400.000000            6 1.000000  TR
  86400.000000            6 1.000000  TR
  86400.000000            6 1.000000  TR
  86400.000000            6 1.000000  TR
  86400.000000            6 1.000000  TR
  86400.000000            6 1.000000  TR
  86400.000000            6 1.000000  TR
  86400.000000            6 1.000000  TR
  86400.000000            6 1.000000  TR
  86400.000000            6 1.000000  TR
  86400.000000            6 1.000000  TR
  86400.000000            6 1.000000  TR
  86400.000000            6 1.000000  TR
  86400.000000            6 1.000000  TR
  86400.000000            6 1.000000  TR
  86400.000000            6 1.000000  TR
  86400.000000            6 1.000000  TR
  86400.000000            6 1.000000  TR
  86400.000000            6 1.000000  TR
  86400.000000            6 1.000000  TR
  86400.000000            6 1.000000  TR
  86400.000000            6 1.000000  TR
  86400.000000            6 1.000000  TR
  86400.000000            6 1.000000  TR
  86400.000000            6 1.000000  TR
  86400.000000            6 1.000000  TR
  86400.000000            6 1.000000  TR
  86400.000000            6 1.000000  TR
  86400.000000            6 1.000000  TR
  86400.000000            6 1.000000  TR
  86400.000000            6 1.000000  TR
  86400.000000            6 1.000000  TR
  86400.000000            6 1.000000  TR
  86400.000000            6 1.000000  TR
  86400.000000            6 1.000000  TR
  86400.000000            6 1.000000  TR
  86400.000000            6 1.000000  TR
  86400.000000            6 1.000000  TR
  86400.000000            6 1.000000  TR
  86400.000000            6 1.000000  TR
  86400.000000            6 1.000000  TR
  86400.000000            6 1.000000  TR
  86400.000000            6 1.000000  TR
  86400.000000            6 1.000000  TR
  86400.000000            6 1.000000  TR
  86400.000000            6 1.000000  TR
  86400.000000            6 1.000000  TR
  86400.000000            6 1.000000  TR
  86400.000000            6 1.000000  TR
  86400.000000            6 1.000000  TR
  86400.000000            6 1.000000  TR
  86400.000000            6 1.000000  TR
  86400.000000            6 1.000000  TR
  86400.000000            6 1.000000  TR
  86400.000000            6 1.000000  TR
  86400.000000            6 1.000000  TR
  86400.000000            6 1.000000  TR
  86400.000000            6 1.000000  TR
  86400.000000            6 1.000000  TR
   86400.000000            6 1.000000  TR
  86400.000000            6 1.000000  TR
  86400.000000            6 1.000000  TR
  86400.000000            6 1.000000  TR
  86400.000000            6 1.000000  TR
  86400.000000            6 1.000000  TR
  86400.000000            6 1.000000  TR
  86400.000000            6 1.000000  TR
  86400.000000            6 1.000000  TR
  86400.000000            6 1.000000  TR
  86400.000000            6 1.000000  TR
  86400.000000            6 1.000000  TR
  86400.000000            6 1.000000  TR
  86400.000000            6 1.000000  TR
  86400.000000            6 1.000000  TR
  86400.000000            6 1.000000  TR
  86400.000000            6 1.000000  TR
  86400.000000            6 1.000000  TR
  86400.000000            6 1.000000  TR
  86400.000000            6 1.000000  TR
  86400.000000            6 1.000000  TR
  86400.000000            6 1.000000  TR
  86400.000000            6 1.000000  TR
  86400.000000            6 1.000000  TR
  86400.000000            6 1.000000  TR
  86400.000000            6 1.000000  TR
  86400.000000            6 1.000000  TR
  86400.000000            6 1.000000  TR
  86400.000000            6 1.000000  TR
  86400.000000            6 1.000000  TR
  86400.000000            6 1.000000  TR
  86400.000000            6 1.000000  TR
  86400.000000            6 1.000000  TR
  86400.000000            6 1.000000  TR
  86400.000000            6 1.000000  TR
  86400.000000            6 1.000000  TR
  86400.000000            6 1.000000  TR
  86400.000000            6 1.000000  TR
  86400.000000            6 1.000000  TR
  86400.000000            6 1.000000  TR
  86400.000000            6 1.000000  TR
  86400.000000            6 1.000000  TR
  86400.000000            6 1.000000  TR
  86400.000000            6 1.000000  TR
  86400.000000            6 1.000000  TR
  86400.000000            6 1.000000  TR
  86400.000000            6 1.000000  TR
  86400.000000            6 1.000000  TR
  86400.000000            6 1.000000  TR
  86400.000000            6 1.000000  TR
  86400.000000            6 1.000000  TR
  86400.000000            6 1.000000  TR
  86400.000000            6 1.000000  TR
  86400.000000            6 1.000000  TR
  86400.000000            6 1.000000  TR
  86400.000000            6 1.000000  TR
  86400.000000            6 1.000000  TR
  86400.000000            6 1.000000  TR
  86400.000000            6 1.000000  TR
  86400.000000            6 1.000000  TR
  86400.000000            6 1.000000  TR
  86400.000000            6 1.000000  TR
  86400.000000            6 1.000000  TR
  86400.000000            6 1.000000  TR
  86400.000000            6 1.000000  TR
  86400.000000            6 1.000000  TR
  86400.000000            6 1.000000  TR
  86400.000000            6 1.000000  TR
  86400.000000            6 1.000000  TR
  86400.000000            6 1.000000  TR
  86400.000000            6 1.000000  TR
  86400.000000            6 1.000000  TR
  86400.000000            6 1.000000  TR
  86400.000000            6 1.000000  TR
  86400.000000            6 1.000000  TR
  86400.000000            6 1.000000  TR
  86400.000000            6 1.000000  TR
  86400.000000            6 1.000000  TR
  86400.000000            6 1.000000  TR
  86400.000000            6 1.000000  TR
  86400.000000            6 1.000000  TR
  86400.000000            6 1.000000  TR
  86400.000000            6 1.000000  TR
  86400.000000            6 1.000000  TR
  86400.000000            6 1.000000  TR
  86400.000000            6 1.000000  TR
  86400.000000            6 1.000000  TR
  86400.000000            6 1.000000  TR
  86400.000000            6 1.000000  TR
  86400.000000            6 1.000000  TR
  86400.000000            6 1.000000  TR
  86400.000000            6 1.000000  TR
  86400.000000            6 1.000000  TR
  86400.000000            6 1.000000  TR
  86400.000000            6 1.000000  TR
  86400.000000            6 1.000000  TR
  86400.000000            6 1.000000  TR
  86400.000000            6 1.000000  TR
  86400.000000            6 1.000000  TR
  86400.000000            6 1.000000  TR
  86400.000000            6 1.000000  TR
  86400.000000            6 1.000000  TR
  86400.000000            6 1.000000  TR
  86400.000000            6 1.000000  TR
  86400.000000            6 1.000000  TR
  86400.000000            6 1.000000  TR
  86400.000000            6 1.000000  TR
  86400.000000            6 1.000000  TR
  86400.000000            6 1.000000  TR
   86400.000000            6 1.000000  TR
  86400.000000            6 1.000000  TR
  86400.000000            6 1.000000  TR
  86400.000000            6 1.000000  TR
  86400.000000            6 1.000000  TR
  86400.000000            6 1.000000  TR
  86400.000000            6 1.000000  TR
  86400.000000            6 1.000000  TR
  86400.000000            6 1.000000  TR
  86400.000000            6 1.000000  TR
  86400.000000            6 1.000000  TR
  86400.000000            6 1.000000  TR
  86400.000000            6 1.000000  TR
  86400.000000            6 1.000000  TR
  86400.000000            6 1.000000  TR
  86400.000000            6 1.000000  TR
  86400.000000            6 1.000000  TR
  86400.000000            6 1.000000  TR
  86400.000000            6 1.000000  TR
  86400.000000            6 1.000000  TR
  86400.000000            6 1.000000  TR
  86400.000000            6 1.000000  TR
  86400.000000            6 1.000000  TR
  86400.000000            6 1.000000  TR
  86400.000000            6 1.000000  TR
  86400.000000            6 1.000000  TR
  86400.000000            6 1.000000  TR
  86400.000000            6 1.000000  TR
  86400.000000            6 1.000000  TR
  86400.000000            6 1.000000  TR
  86400.000000            6 1.000000  TR
  86400.000000            6 1.000000  TR
  86400.000000            6 1.000000  TR
  86400.000000            6 1.000000  TR
  86400.000000            6 1.000000  TR
  86400.000000            6 1.000000  TR
  86400.000000            6 1.000000  TR
  86400.000000            6 1.000000  TR
  86400.000000            6 1.000000  TR
  86400.000000            6 1.000000  TR
  86400.000000            6 1.000000  TR
  86400.000000            6 1.000000  TR
  86400.000000            6 1.000000  TR
  86400.000000            6 1.000000  TR
  86400.000000            6 1.000000  TR
  86400.000000            6 1.000000  TR
  86400.000000            6 1.000000  TR
  86400.000000            6 1.000000  TR
  86400.000000            6 1.000000  TR
  86400.000000            6 1.000000  TR
  86400.000000            6 1.000000  TR
  86400.000000            6 1.000000  TR
  86400.000000            6 1.000000  TR
  86400.000000            6 1.000000  TR
  86400.000000            6 1.000000  TR
  86400.000000            6 1.000000  TR
  86400.000000            6 1.000000  TR
  86400.000000            6 1.000000  TR
  86400.000000            6 1.000000  TR
  86400.000000            6 1.000000  TR
  86400.000000            6 1.000000  TR
  86400.000000            6 1.000000  TR
  86400.000000            6 1.000000  TR
  86400.000000            6 1.000000  TR
  86400.000000            6 1.000000  TR
  86400.000000            6 1.000000  TR
  86400.000000            6 1.000000  TR
  86400.000000            6 1.000000  TR
  86400.000000            6 1.000000  TR
  86400.000000            6 1.000000  TR
  86400.000000            6 1.000000  TR
  86400.000000            6 1.000000  TR
  86400.000000            6 1.000000  TR
  86400.000000            6 1.000000  TR
  86400.000000            6 1.000000  TR
  86400.000000            6 1.000000  TR
  86400.000000            6 1.000000  TR
  86400.000000            6 1.000000  TR
  86400.000000            6 1.000000  TR
  86400.000000            6 1.000000  TR
  86400.000000            6 1.000000  TR
  86400.000000            6 1.000000  TR
  86400.000000            6 1.000000  TR
  86400.000000            6 1.000000  TR
  86400.000000            6 1.000000  TR
  86400.000000            6 1.000000  TR
  86400.000000            6 1.000000  TR
  86400.000000            6 1.000000  TR
  86400.000000            6 1.000000  TR
  86400.000000            6 1.000000  TR
  86400.000000            6 1.000000  TR
  86400.000000            6 1.000000  TR
  86400.000000            6 1.000000  TR
  86400.000000            6 1.000000  TR
  86400.000000            6 1.000000  TR
  86400.000000            6 1.000000  TR
  86400.000000            6 1.000000  TR
  86400.000000            6 1.000000  TR
  86400.000000            6 1.000000  TR
  86400.000000            6 1.000000  TR
  86400.000000            6 1.000000  TR
  86400.000000            6 1.000000  TR
  86400.000000            6 1.000000  TR
  86400.000000            6 1.000000  TR
  86400.000000            6 1.000000  TR
  86400.000000            6 1.000000  TR
  86400.000000            6 1.000000  TR
  86400.000000            6 1.000000  TR
  86400.000000            6 1.000000  TR
   86400.000000            6 1.000000  TR
  86400.000000            6 1.000000  TR
  86400.000000            6 1.000000  TR
  86400.000000            6 1.000000  TR
  86400.000000            6 1.000000  TR
  86400.000000            6 1.000000  TR
  86400.000000            6 1.000000  TR
  86400.000000            6 1.000000  TR
  86400.000000            6 1.000000  TR
  86400.000000            6 1.000000  TR
  86400.000000            6 1.000000  TR
  86400.000000            6 1.000000  TR
  86400.000000            6 1.000000  TR
  86400.000000            6 1.000000  TR
  86400.000000            6 1.000000  TR
  86400.000000            6 1.000000  TR
  86400.000000            6 1.000000  TR
  86400.000000            6 1.000000  TR
  86400.000000            6 1.000000  TR
  86400.000000            6 1.000000  TR
  86400.000000            6 1.000000  TR
  86400.000000            6 1.000000  TR
  86400.000000            6 1.000000  TR
  86400.000000            6 1.000000  TR
  86400.000000            6 1.000000  TR
  86400.000000            6 1.000000  TR
  86400.000000            6 1.000000  TR
  86400.000000            6 1.000000  TR
  86400.000000            6 1.000000  TR
  86400.000000            6 1.000000  TR
  86400.000000            6 1.000000  TR
  86400.000000            6 1.000000  TR
  86400.000000            6 1.000000  TR
  86400.000000            6 1.000000  TR
  86400.000000            6 1.000000  TR
  86400.000000            6 1.000000  TR
  86400.000000            6 1.000000  TR
  86400.000000            6 1.000000  TR
  86400.000000            6 1.000000  TR
  86400.000000            6 1.000000  TR
  86400.000000            6 1.000000  TR
  86400.000000            6 1.000000  TR
  86400.000000            6 1.000000  TR
  86400.000000            6 1.000000  TR
  86400.000000            6 1.000000  TR
  86400.000000            6 1.000000  TR
  86400.000000            6 1.000000  TR
  86400.000000            6 1.000000  TR
  86400.000000            6 1.000000  TR
  86400.000000            6 1.000000  TR
  86400.000000            6 1.000000  TR
  86400.000000            6 1.000000  TR
  86400.000000            6 1.000000  TR
  86400.000000            6 1.000000  TR
  86400.000000            6 1.000000  TR
  86400.000000            6 1.000000  TR
  86400.000000            6 1.000000  TR
  86400.000000            6 1.000000  TR
  86400.000000            6 1.000000  TR
  86400.000000            6 1.000000  TR
  86400.000000            6 1.000000  TR
  86400.000000            6 1.000000  TR
  86400.000000            6 1.000000  TR
  86400.000000            6 1.000000  TR
  86400.000000            6 1.000000  TR
  86400.000000            6 1.000000  TR
  86400.000000            6 1.000000  TR
  86400.000000            6 1.000000  TR
  86400.000000            6 1.000000  TR
  86400.000000            6 1.000000  TR
  86400.000000            6 1.000000  TR
  86400.000000            6 1.000000  TR
  86400.000000            6 1.000000  TR
  86400.000000            6 1.000000  TR
  86400.000000            6 1.000000  TR
  86400.000000            6 1.000000  TR
  86400.000000            6 1.000000  TR
  86400.000000            6 1.000000  TR
  86400.000000            6 1.000000  TR
  86400.000000            6 1.000000  TR
  86400.000000            6 1.000000  TR
  86400.000000            6 1.000000  TR
  86400.000000            6 1.000000  TR
  86400.000000            6 1.000000  TR
  86400.000000            6 1.000000  TR
  86400.000000            6 1.000000  TR
  86400.000000            6 1.000000  TR
  86400.000000            6 1.000000  TR
  86400.000000            6 1.000000  TR
  86400.000000            6 1.000000  TR
  86400.000000            6 1.000000  TR
  86400.000000            6 1.000000  TR
  86400.000000            6 1.000000  TR
  86400.000000            6 1.000000  TR
  86400.000000            6 1.000000  TR
  86400.000000            6 1.000000  TR
  86400.000000            6 1.000000  TR
  86400.000000            6 1.000000  TR
  86400.000000            6 1.000000  TR
  86400.000000            6 1.000000  TR
  86400.000000            6 1.000000  TR
  86400.000000            6 1.000000  TR
  86400.000000            6 1.000000  TR
  86400.000000            6 1.000000  TR
  86400.000000            6 1.000000  TR
  86400.000000            6 1.000000  TR
  86400.000000            6 1.000000  TR
  86400.000000            6 1.000000  TR
  86400.000000            6 1.000000  TR
 86400.000000            6 1.000000  TR
  86400.000000            6 1.000000  TR
  86400.000000            6 1.000000  TR
  86400.000000            6 1.000000  TR
  86400.000000            6 1.000000  TR
  86400.000000            6 1.000000  TR
  86400.000000            6 1.000000  TR
  86400.000000            6 1.000000  TR
  86400.000000            6 1.000000  TR
  86400.000000            6 1.000000  TR
  86400.000000            6 1.000000  TR
  86400.000000            6 1.000000  TR
  86400.000000            6 1.000000  TR
  86400.000000            6 1.000000  TR
  86400.000000            6 1.000000  TR
  86400.000000            6 1.000000  TR
  86400.000000            6 1.000000  TR
  86400.000000            6 1.000000  TR
  86400.000000            6 1.000000  TR
  86400.000000            6 1.000000  TR
  86400.000000            6 1.000000  TR
  86400.000000            6 1.000000  TR
  86400.000000            6 1.000000  TR
  86400.000000            6 1.000000  TR
  86400.000000            6 1.000000  TR
  86400.000000            6 1.000000  TR
  86400.000000            6 1.000000  TR
  86400.000000            6 1.000000  TR
  86400.000000            6 1.000000  TR
  86400.000000            6 1.000000  TR
  86400.000000            6 1.000000  TR
  86400.000000            6 1.000000  TR
  86400.000000            6 1.000000  TR
  86400.000000            6 1.000000  TR
  86400.000000            6 1.000000  TR
  86400.000000            6 1.000000  TR
  86400.000000            6 1.000000  TR
  86400.000000            6 1.000000  TR
  86400.000000            6 1.000000  TR
  86400.000000            6 1.000000  TR
  86400.000000            6 1.000000  TR
  86400.000000            6 1.000000  TR
  86400.000000            6 1.000000  TR
  86400.000000            6 1.000000  TR
  86400.000000            6 1.000000  TR
  86400.000000            6 1.000000  TR
  86400.000000            6 1.000000  TR
  86400.000000            6 1.000000  TR
  86400.000000            6 1.000000  TR
  86400.000000            6 1.000000  TR
  86400.000000            6 1.000000  TR
  86400.000000            6 1.000000  TR
  86400.000000            6 1.000000  TR
  86400.000000            6 1.000000  TR
  86400.000000            6 1.000000  TR
  86400.000000            6 1.000000  TR
  86400.000000            6 1.000000  TR
  86400.000000            6 1.000000  TR
  86400.000000            6 1.000000  TR
  86400.000000            6 1.000000  TR
  86400.000000            6 1.000000  TR
  86400.000000            6 1.000000  TR
  86400.000000            6 1.000000  TR
  86400.000000            6 1.000000  TR
  86400.000000            6 1.000000  TR
  86400.000000            6 1.000000  TR
  86400.000000            6 1.000000  TR
  86400.000000            6 1.000000  TR
  86400.000000            6 1.000000  TR
  86400.000000            6 1.000000  TR
  86400.000000            6 1.000000  TR
  86400.000000            6 1.000000  TR
  86400.000000            6 1.000000  TR
  86400.000000            6 1.000000  TR
  86400.000000            6 1.000000  TR
  86400.000000            6 1.000000  TR
  86400.000000            6 1.000000  TR
  86400.000000            6 1.000000  TR
  86400.000000            6 1.000000  TR
  86400.000000            6 1.000000  TR
  86400.000000            6 1.000000  TR
  86400.000000            6 1.000000  TR
  86400.000000            6 1.000000  TR
  86400.000000            6 1.000000  TR
  86400.000000            6 1.000000  TR
  86400.000000            6 1.000000  TR
  86400.000000            6 1.000000  TR
  86400.000000            6 1.000000  TR
  86400.000000            6 1.000000  TR
  86400.000000            6 1.000000  TR
  86400.000000            6 1.000000  TR
  86400.000000            6 1.000000  TR
  86400.000000            6 1.000000  TR
  86400.000000            6 1.000000  TR
  86400.000000            6 1.000000  TR
  86400.000000            6 1.000000  TR
  86400.000000            6 1.000000  TR
  86400.000000            6 1.000000  TR
  86400.000000            6 1.000000  TR
  86400.000000            6 1.000000  TR
  86400.000000            6 1.000000  TR
  86400.000000            6 1.000000  TR
  86400.000000            6 1.000000  TR
  86400.000000            6 1.000000  TR
  86400.000000            6 1.000000  TR
  86400.000000            6 1.000000  TR
  86400.000000            6 1.000000  TR
  86400.000000            6 1.000000  TR
  86400.000000            6 1.000000  TR
   86400.000000            6 1.000000  TR
  86400.000000            6 1.000000  TR
  86400.000000            6 1.000000  TR
  86400.000000            6 1.000000  TR
  86400.000000            6 1.000000  TR
  86400.000000            6 1.000000  TR
  86400.000000            6 1.000000  TR
  86400.000000            6 1.000000  TR
  86400.000000            6 1.000000  TR
  86400.000000            6 1.000000  TR
  86400.000000            6 1.000000  TR
  86400.000000            6 1.000000  TR
  86400.000000            6 1.000000  TR
  86400.000000            6 1.000000  TR
  86400.000000            6 1.000000  TR
  86400.000000            6 1.000000  TR
  86400.000000            6 1.000000  TR
  86400.000000            6 1.000000  TR
  86400.000000            6 1.000000  TR
  86400.000000            6 1.000000  TR
  86400.000000            6 1.000000  TR
  86400.000000            6 1.000000  TR
  86400.000000            6 1.000000  TR
  86400.000000            6 1.000000  TR
  86400.000000            6 1.000000  TR
  86400.000000            6 1.000000  TR
  86400.000000            6 1.000000  TR
  86400.000000            6 1.000000  TR
  86400.000000            6 1.000000  TR
  86400.000000            6 1.000000  TR
  86400.000000            6 1.000000  TR
  86400.000000            6 1.000000  TR
  86400.000000            6 1.000000  TR
  86400.000000            6 1.000000  TR
  86400.000000            6 1.000000  TR
  86400.000000            6 1.000000  TR
  86400.000000            6 1.000000  TR
  86400.000000            6 1.000000  TR
  86400.000000            6 1.000000  TR
  86400.000000            6 1.000000  TR
  86400.000000            6 1.000000  TR
  86400.000000            6 1.000000  TR
  86400.000000            6 1.000000  TR
  86400.000000            6 1.000000  TR
  86400.000000            6 1.000000  TR
  86400.000000            6 1.000000  TR
  86400.000000            6 1.000000  TR
  86400.000000            6 1.000000  TR
  86400.000000            6 1.000000  TR
  86400.000000            6 1.000000  TR
  86400.000000            6 1.000000  TR
  86400.000000            6 1.000000  TR
  86400.000000            6 1.000000  TR
  86400.000000            6 1.000000  TR
  86400.000000            6 1.000000  TR
  86400.000000            6 1.000000  TR
  86400.000000            6 1.000000  TR
  86400.000000            6 1.000000  TR
  86400.000000            6 1.000000  TR
  86400.000000            6 1.000000  TR
  86400.000000            6 1.000000  TR
  86400.000000            6 1.000000  TR