# GHB package for MODFLOW-2005 generated by Flopy 3.3.5
       556         0
       556         0 # stress period 1
         1        10        67      56.7         1
         1        13        67      56.5         1
         1        16        67      56.1         1
         1        34        82      52.6         1
         1        40        85      51.6         1
         1        46        88      50.6         1
         1        49        88      50.2         1
         1        52        88      49.7         1
         1        55        88      49.3         1
         1        58        85      48.7         1
         1        61        85      48.3         1
         1        64        85      47.8         1
         1        67        85      47.4         1
         1        70        85        47         1
         1        73        82      46.5         1
         1        76        82        46         1
         1        79        82      45.6         1
         1        82        82      45.1         1
         1        85        82      44.7         1
         1        88        79      44.1         1
         1        91        79      43.6         1
         1       100        85        42         1
         1       103        85      41.5         1
         1       106        85      41.1         1
         1       109        85      40.7         1
         1       112        85      40.3         1
         1       115        85      39.8         1
         1       121        82      38.9         1
         1       124        61      35.7         1
         1       127        55      34.7         1
         1       130        52      34.2         1
         1       139        58      32.6         1
         1       142        58      32.2         1
         1       145        58      31.7         1
         1       148        55      31.2         1
         1       151        55      30.8         1
         1       154        52      30.1         1
         1       118        85      39.5         1
         1        43       127        53         1
         1        64       124      50.4         1
         1        94       121      46.7         1
         1       100       118      45.7         1
         1       124       115      42.7         1
         1       127       112      41.9         1
         1       133       109      41.1         1
         1       136       106      40.6         1
         1       139       103      40.1         1
         1       142       100      39.6         1
         1       145        76      36.5         1
         1       145        79      36.9         1
         1       145        82      37.2         1
         1       145        97      39.2         1
         1       148        73        36         1
         1       148        88        38         1
         1       148        91      38.3         1
         1       148        94      38.7         1
         1       154         4      22.1         1
         1       154         7      22.4         1
         1       154        10      22.7         1
         1       154        13      23.1         1
         1       154        16      23.4         1
         1       175        40      27.2         1
         1       178        76        32         1
         1       181        49      28.4         1
         1       181        73      31.5         1
         1       184        70        31         1
         1         7        67        57         1
         1       187        58      29.7         1
         1       187        61        30         1
         1       187        64      30.4         1
         1       187        67      30.7         1
         1       154         8      22.4         1
         1       154         9      22.4         1
         1       154         5      22.1         1
         1       154         6      22.1         1
         1       154        11      22.7         1
         1       139        12      22.9         1
         1       154        12      22.7         1
         1       154        14      23.1         1
         1       154        15      23.1         1
         1       154        17      23.4         1
         1       154        18      23.4         1
         1       157        20      23.9         1
         1       142        21      24.4         1
         1       157        21      23.9         1
         1       160        23      24.4         1
         1       160        24      24.4         1
         1       163        26      24.9         1
         1       145        27      25.3         1
         1       163        27      24.9         1
         1       148        30        26         1
         1       166        30      25.4         1
         1       166        29      25.4         1
         1       169        33      25.8         1
         1       169        32      25.8         1
         1       151        36        27         1
         1       172        36      26.3         1
         1       172        35      26.3         1
         1       154        39      27.6         1
         1       175        39      26.8         1
         1       175        38      26.8         1
         1       175        42      27.2         1
         1       175        41      27.2         1
         1       178        45      27.7         1
         1       178        44      27.7         1
         1       181        48      28.1         1
         1       181        47      28.1         1
         1       181        51      28.4         1
         1       181        50      28.4         1
         1       133        54      33.8         1
         1       184        54      28.9         1
         1       133        53      33.8         1
         1       184        53      28.9         1
         1       136        57      33.2         1
         1       187        57      29.3         1
         1       136        56      33.2         1
         1       187        56      29.3         1
         1       187        60      29.7         1
         1       187        59      29.7         1
         1       187        63        30         1
         1       187        62        30         1
         1       187        66      30.4         1
         1       187        65      30.4         1
         1        19        69      55.7         1
         1        19        68      55.7         1
         1       187        68      30.7         1
         1        22        71      55.1         1
         1       184        71        31         1
         1        22        72      55.1         1
         1       151        72      35.5         1
         1       154        72      35.1         1
         1       157        72      34.8         1
         1       160        72      34.4         1
         1       163        72      34.1         1
         1        25        75      54.4         1
         1       166        75      33.6         1
         1        25        74      54.4         1
         1       148        74        36         1
         1       181        74      31.5         1
         1        28        77      53.9         1
         1       145        77      36.5         1
         1       178        77        32         1
         1        28        78      53.9         1
         1       145        78      36.5         1
         1       169        78      33.1         1
         1       172        78      32.7         1
         1       175        78      32.3         1
         1        31        80      53.2         1
         1        94        80      43.2         1
         1       145        80      36.9         1
         1        31        81      53.2         1
         1        94        81      43.2         1
         1       145        81      36.9         1
         1        37        84      52.2         1
         1        97        84      42.6         1
         1       145        84      37.2         1
         1        37        83      52.2         1
         1        97        83      42.6         1
         1       145        83      37.2         1
         1        43        87      51.2         1
         1       148        87      37.5         1
         1        43        86      51.2         1
         1       148        86      37.5         1
         1       148        90        38         1
         1       148        89        38         1
         1       148        93      38.3         1
         1       148        92      38.3         1
         1       148        95      38.7         1
         1       145        98      39.2         1
         1       142       101      39.6         1
         1       139       104      40.1         1
         1       136       107      40.6         1
         1       130       111      41.4         1
         1       133       110      41.1         1
         1       127       113      41.9         1
         1       103       117      45.1         1
         1       106       117      44.7         1
         1       109       117      44.4         1
         1       112       117        44         1
         1       115       117      43.7         1
         1       118       117      43.4         1
         1       121       117        43         1
         1       124       116      42.7         1
         1        97       120      46.1         1
         1       100       120      45.7         1
         1       100       119      45.7         1
         1        67       123      49.8         1
         1        70       123      49.4         1
         1        73       123        49         1
         1        76       123      48.7         1
         1        79       123      48.4         1
         1        82       123        48         1
         1        85       123      47.7         1
         1        88       123      47.3         1
         1        91       123        47         1
         1        94       123      46.7         1
         1        94       122      46.7         1
         1        46       126      52.5         1
         1        49       126      52.1         1
         1        52       126      51.8         1
         1        55       126      51.4         1
         1        58       126      51.1         1
         1        61       126      50.7         1
         1        64       125      50.4         1
         1        43       128        53         1
         1         6        67        57         1
         1         5        67        57         1
         1         9        67      56.7         1
         1         8        67      56.7         1
         1        12        67      56.5         1
         1        11        67      56.5         1
         1        15        67      56.1         1
         1        14        67      56.1         1
         1        18        67      55.7         1
         1        17        67      55.7         1
         1        21        70      55.1         1
         1        20        70      55.1         1
         1        24        73      54.4         1
         1        23        73      54.4         1
         1        27        76      53.9         1
         1        26        76      53.9         1
         1        30        79      53.2         1
         1        29        79      53.2         1
         1        33        82      52.6         1
         1        32        82      52.6         1
         1        36        82      52.2         1
         1        35        82      52.2         1
         1        39        85      51.6         1
         1        38        85      51.6         1
         1        42        85      51.2         1
         1        42       129        54         1
         1        41        85      51.2         1
         1        45        88      50.6         1
         1        45       126      52.5         1
         1        44        88      50.6         1
         1        44       126      52.5         1
         1        48        88      50.2         1
         1        48       126      52.1         1
         1        47        88      50.2         1
         1        47       126      52.1         1
         1        51        88      49.7         1
         1        51       126      51.8         1
         1        50        88      49.7         1
         1        50       126      51.8         1
         1        54        88      49.3         1
         1        54       126      51.4         1
         1        53        88      49.3         1
         1        53       126      51.4         1
         1        57        85      48.7         1
         1        57       126      51.1         1
         1        56        87      48.7         1
         1        56        86      48.7         1
         1        56       126      51.1         1
         1        60        85      48.3         1
         1        60       126      50.7         1
         1        59        85      48.3         1
         1        59       126      50.7         1
         1        63        85      47.8         1
         1        63       126      50.4         1
         1        62        85      47.8         1
         1        62       126      50.4         1
         1        66        85      47.4         1
         1        66       123      49.8         1
         1        65        85      47.4         1
         1        65       123      49.8         1
         1        69        85        47         1
         1        69       123      49.4         1
         1        68        85        47         1
         1        68       123      49.4         1
         1        72        82      46.5         1
         1        72       123        49         1
         1        71        84      46.5         1
         1        71        83      46.5         1
         1        71       123        49         1
         1        75        82        46         1
         1        75       123      48.7         1
         1        74        82        46         1
         1        74       123      48.7         1
         1        78        82      45.6         1
         1        78       123      48.4         1
         1        77        82      45.6         1
         1        77       123      48.4         1
         1        81        82      45.1         1
         1        81       123        48         1
         1        80        82      45.1         1
         1        80       123        48         1
         1        84        82      44.7         1
         1        84       123      47.7         1
         1        83        82      44.7         1
         1        83       123      47.7         1
         1        87        79      44.1         1
         1        87       123      47.3         1
         1        86        80      44.1         1
         1        86        81      44.1         1
         1        86       123      47.3         1
         1        90        79      43.6         1
         1        90       123        47         1
         1        89        79      43.6         1
         1        89       123        47         1
         1        93        79      43.2         1
         1        93       123      46.7         1
         1        92        79      43.2         1
         1        92       123      46.7         1
         1        96        82      42.6         1
         1        96       120      46.1         1
         1        95        82      42.6         1
         1        95       120      46.1         1
         1        99        85        42         1
         1        99       120      45.7         1
         1        98        85        42         1
         1        98       120      45.7         1
         1       102        85      41.5         1
         1       102       117      45.1         1
         1       101        85      41.5         1
         1       101       117      45.1         1
         1       105        85      41.1         1
         1       105       117      44.7         1
         1       104        85      41.1         1
         1       104       117      44.7         1
         1       108        85      40.7         1
         1       108       117      44.4         1
         1       107        85      40.7         1
         1       107       117      44.4         1
         1       111        85      40.3         1
         1       111       117        44         1
         1       110        85      40.3         1
         1       110       117        44         1
         1       114        85      39.8         1
         1       114       117      43.7         1
         1       113        85      39.8         1
         1       113       117      43.7         1
         1       117        85      39.5         1
         1       117       117      43.4         1
         1       116        85      39.5         1
         1       116       117      43.4         1
         1       120        82      38.9         1
         1       120       117        43         1
         1       119        84      38.9         1
         1       119        83      38.9         1
         1       119       117        43         1
         1       123        61      35.7         1
         1       123       117      42.7         1
         1       122        64      36.1         1
         1       122        67      36.5         1
         1       122        70        37         1
         1       122        73      37.4         1
         1       122        76      37.8         1
         1       122        79      38.3         1
         1       122        63      35.7         1
         1       122        62      35.7         1
         1       122        66      36.1         1
         1       122        65      36.1         1
         1       122        69      36.5         1
         1       122        68      36.5         1
         1       122        71        37         1
         1       122        72        37         1
         1       122        75      37.4         1
         1       122        74      37.4         1
         1       122        77      37.8         1
         1       122        78      37.8         1
         1       122        80      38.3         1
         1       122        81      38.3         1
         1       122       117      42.7         1
         1       126        55      34.7         1
         1       126       114      41.9         1
         1       125        58      35.1         1
         1       125        57      34.7         1
         1       125        56      34.7         1
         1       125        60      35.1         1
         1       125        59      35.1         1
         1       125       114      41.9         1
         1       129        52      34.2         1
         1       129       111      41.4         1
         1       128        54      34.2         1
         1       128        53      34.2         1
         1       128       111      41.4         1
         1       132        52      33.8         1
         1       132       111      41.1         1
         1       131        52      33.8         1
         1       131       111      41.1         1
         1       135        55      33.2         1
         1       135       108      40.6         1
         1       134        55      33.2         1
         1       134       108      40.6         1
         1       138        58      32.6         1
         1       138        12      22.9         1
         1       138       105      40.1         1
         1       137         4      22.1         1
         1       137         7      22.5         1
         1       137        10      22.9         1
         1       137        58      32.6         1
         1       137         8      22.5         1
         1       137         9      22.5         1
         1       137         5      22.1         1
         1       137         6      22.1         1
         1       137        11      22.9         1
         1       137       105      40.1         1
         1       141        58      32.2         1
         1       141        21      24.4         1
         1       141       102      39.6         1
         1       140        13      23.5         1
         1       140        16        24         1
         1       140        19      24.4         1
         1       140        58      32.2         1
         1       140        14      23.5         1
         1       140        15      23.5         1
         1       140        17        24         1
         1       140        18        24         1
         1       140        20      24.4         1
         1       140       102      39.6         1
         1       144        58      31.7         1
         1       144        27      25.3         1
         1       144        99      39.2         1
         1       143        22      24.9         1
         1       143        25      25.3         1
         1       143        58      31.7         1
         1       143        23      24.9         1
         1       143        24      24.9         1
         1       143        26      25.3         1
         1       143        99      39.2         1
         1       147        55      31.2         1
         1       147        85      37.5         1
         1       147        30        26         1
         1       147        75        36         1
         1       147        96      38.7         1
         1       146        28        26         1
         1       146        85      37.5         1
         1       146        29        26         1
         1       146        57      31.2         1
         1       146        56      31.2         1
         1       146        75        36         1
         1       146        96      38.7         1
         1       150        55      30.8         1
         1       150        36        27         1
         1       150        72      35.5         1
         1       149        31      26.5         1
         1       149        34        27         1
         1       149        55      30.8         1
         1       149        33      26.5         1
         1       149        32      26.5         1
         1       149        35        27         1
         1       149        72      35.5         1
         1       153        52      30.1         1
         1       153        39      27.6         1
         1       153        72      35.1         1
         1       152        37      27.6         1
         1       152        38      27.6         1
         1       152        54      30.1         1
         1       152        53      30.1         1
         1       152        72      35.1         1
         1       156        19      23.9         1
         1       156        72      34.8         1
         1       155        40      28.2         1
         1       155        43      28.6         1
         1       155        46      29.1         1
         1       155        49      29.5         1
         1       155        19      23.9         1
         1       155        42      28.2         1
         1       155        41      28.2         1
         1       155        45      28.6         1
         1       155        44      28.6         1
         1       155        48      29.1         1
         1       155        47      29.1         1
         1       155        51      29.5         1
         1       155        50      29.5         1
         1       155        72      34.8         1
         1       159        22      24.4         1
         1       159        72      34.4         1
         1       158        22      24.4         1
         1       158        72      34.4         1
         1       162        25      24.9         1
         1       162        72      34.1         1
         1       161        25      24.9         1
         1       161        72      34.1         1
         1       165        28      25.4         1
         1       165        75      33.6         1
         1       164        28      25.4         1
         1       164        73      33.6         1
         1       168        31      25.8         1
         1       168        78      33.1         1
         1       167        31      25.8         1
         1       167        76      33.1         1
         1       167        77      33.1         1
         1       171        34      26.3         1
         1       171        78      32.7         1
         1       170        34      26.3         1
         1       170        78      32.7         1
         1       174        37      26.8         1
         1       174        78      32.3         1
         1       173        37      26.8         1
         1       173        78      32.3         1
         1       177        43      27.7         1
         1       177        78        32         1
         1       176        43      27.7         1
         1       176        78        32         1
         1       180        46      28.1         1
         1       180        75      31.5         1
         1       179        46      28.1         1
         1       179        75      31.5         1
         1       183        52      28.9         1
         1       183        72        31         1
         1       182        52      28.9         1
         1       182        72        31         1
         1       186        55      29.3         1
         1       186        69      30.7         1
         1       185        55      29.3         1
         1       137         3      22.1         1
         1       137         2      22.1         1
         1       154         3      22.1         1
         1       154         2      22.1         1
         1       185        69      30.7         1
         1       164        74      33.6         1
         1         2        67        57         1
         1         3        67        57         1
         1         4        67        57         1
         1        41       129      54.5       0.2
         1        39       129      55.5       0.2
         1        40       129        55       0.2
         1        38       129        56       0.2
         1        37       129        57       0.2
         1        36       129        58       0.2
         1        35       129        59       0.2
         1        34       129        60       0.2
         1        32       129        61       0.2
         1        33       129        62       0.2
         1        31       129        61       0.2
         1        30       129        61       0.2
         1        29       129        61       0.2
         1        28       129        61       0.2
         1        27       129        61       0.2
         1        26       129        62       0.2
         1        25       129        63       0.2
         1        24       129        64       0.2
         1        23       128        64       0.2
         1        23       127        64       0.2
         1        22       126        65       0.2
         1        21       126        66       0.2
         1        20       126        67       0.2
         1        19       126        68       0.2
         1        18       126        69       0.2
         1        17       126        70       0.2
         1        16       126        70       0.2
         1        14       126        70       0.2
         1        15       126        70       0.2
         1        13       126        70       0.2
         1        11       126        70       0.2
         1        12       126        70       0.2
         1        10       126        70       0.2
         1         9       126        70       0.2
         1         8       126        70       0.2
         1         7       126        70       0.2
         1         6       126        70       0.2
         1         5       126        70       0.2
         1         4       126        70       0.2
         1         3       126        70       0.2
         1         2       126        70       0.2
       556         0 # stress period 2
         1        10        67      56.7         1
         1        13        67      56.5         1
         1        16        67      56.1         1
         1        34        82      52.6         1
         1        40        85      51.6         1
         1        46        88      50.6         1
         1        49        88      50.2         1
         1        52        88      49.7         1
         1        55        88      49.3         1
         1        58        85      48.7         1
         1        61        85      48.3         1
         1        64        85      47.8         1
         1        67        85      47.4         1
         1        70        85        47         1
         1        73        82      46.5         1
         1        76        82        46         1
         1        79        82      45.6         1
         1        82        82      45.1         1
         1        85        82      44.7         1
         1        88        79      44.1         1
         1        91        79      43.6         1
         1       100        85        42         1
         1       103        85      41.5         1
         1       106        85      41.1         1
         1       109        85      40.7         1
         1       112        85      40.3         1
         1       115        85      39.8         1
         1       121        82      38.9         1
         1       124        61      35.7         1