# GHB package for MODFLOW-NWT generated by Flopy 3.3.5
       113         1
       113         0 # stress period 1
         1         1        68        57    0.0005
         1         1        69        57    0.0005
         1         1        70        57    0.0005
         1         1        71        57    0.0005
         1         1        72        57    0.0005
         1         1        73        57    0.0005
         1         1        74        57    0.0005
         1         1        75        57    0.0005
         1         1        76        57    0.0005
         1         1        77        57    0.0005
         1         1        78        57    0.0005
         1         1        79        57    0.0005
         1         1        80        57    0.0005
         1         1        81        57    0.0005
         1         1        82        57    0.0005
         1         1        83        57    0.0005
         1         1        84        57    0.0005
         1         1        85        57    0.0005
         1         1        86        57    0.0005
         1         1        87        57    0.0005
         1         1        88        57    0.0005
         1         1        89        57    0.0005
         1         1        90        57    0.0005
         1         1        91        57    0.0005
         1         1        92        57    0.0005
         1         1        93        57    0.0005
         1         1        94        57    0.0005
         1         1        95        57    0.0005
         1         1        96        57    0.0005
         1         1        97        57    0.0005
         1         1        98        57    0.0005
         1         1        99        57    0.0005
         1         1       100        57    0.0005
         1         1       101        57    0.0005
         1         1       102        57    0.0005
         1         1       103        57    0.0005
         1         1       104        57    0.0005
         1         1       105        57    0.0005
         1         1       106        57    0.0005
         1         1       107        57    0.0005
         1         1       108        57    0.0005
         1         1       109        57    0.0005
         1         1       110        57    0.0005
         1         1       111        57    0.0005
         1         1       112        57    0.0005
         1         1       113        57    0.0005
         1         1       114        57    0.0005
         1         1       115        57    0.0005
         1         1       116        57    0.0005
         1         1       117        57    0.0005
         1         1       118        57    0.0005
         1         1       119        57    0.0005
         1         1       120        57    0.0005
         1         1       121        57    0.0005
         1         1       122        57    0.0005
         1         1       123        57    0.0005
         1         1       124        57    0.0005
         1         1       125        57    0.0005
         1       138         1        22    0.0005
         1       139         1        22    0.0005
         1       140         1        22    0.0005
         1       141         1        22    0.0005
         1       142         1        22    0.0005
         1       143         1        22    0.0005
         1       144         1        22    0.0005
         1       145         1        22    0.0005
         1       146         1        22    0.0005
         1       147         1        22    0.0005
         1       148         1        22    0.0005
         1       149         1        22    0.0005
         1       150         1        22    0.0005
         1       151         1        22    0.0005
         1       152         1        22    0.0005
         1       153         1        22    0.0005
         2         1        83        67    0.0005
         2         1        84      71.2    0.0005
         2         1        85      91.4    0.0005
         2         1        86        88    0.0005
         2         1        87      86.8    0.0005
         2         1        88      87.1    0.0005
         2         1        89      90.2    0.0005
         2         1        90      87.3    0.0005
         2         1        91        67    0.0005
         2         1        92      86.4    0.0005
         2         1        93      88.9    0.0005
         2         1        94      90.3    0.0005
         2         1        95      91.4    0.0005
         2         1        96      90.4    0.0005
         2         1        97      90.8    0.0005
         2         1        98      89.7    0.0005
         2         1        99      90.2    0.0005
         2         1       100      90.4    0.0005
         2         1       101      59.2    0.0005
         2         1       102      59.3    0.0005
         2         1       103        68    0.0005
         2         1       104      70.2    0.0005
         2         1       105      82.9    0.0005
         2         1       106      90.1    0.0005
         2         1       107     110.5    0.0005
         2         1       108     108.3    0.0005
         2         1       109     105.6    0.0005
         2         1       110     105.4    0.0005
         2         1       111     105.5    0.0005
         2         1       112     106.9    0.0005
         2         1       113     108.7    0.0005
         2         1       114     109.8    0.0005
         2         1       115     111.3    0.0005
         2         1       116     107.2    0.0005
         2         1       117     108.9    0.0005
         2       147         1     108.8    0.0005
         2       148         1      31.4    0.0005
         2       149         1        23    0.0005
         2       150         1      23.1    0.0005
        -1         0 # stress period 2
        -1         0 # stress period 3
        -1         0 # stress period 4
        -1         0 # stress period 5
        -1         0 # stress period 6
        -1         0 # stress period 7
        -1         0 # stress period 8
        -1         0 # stress period 9
        -1         0 # stress period 10
        -1         0 # stress period 11
        -1         0 # stress period 12
        -1         0 # stress period 13
        -1         0 # stress period 14
        -1         0 # stress period 15
        -1         0 # stress period 16
        -1         0 # stress period 17
        -1         0 # stress period 18
        -1         0 # stress period 19
        -1         0 # stress period 20
        -1         0 # stress period 21
        -1         0 # stress period 22
        -1         0 # stress period 23
        -1         0 # stress period 24
        -1         0 # stress period 25
        -1         0 # stress period 26
        -1         0 # stress period 27
        -1         0 # stress period 28
        -1         0 # stress period 29
        -1         0 # stress period 30
        -1         0 # stress period 31
        -1         0 # stress period 32
        -1         0 # stress period 33
        -1         0 # stress period 34
        -1         0 # stress period 35
        -1         0 # stress period 36
        -1         0 # stress period 37
        -1         0 # stress period 38
        -1         0 # stress period 39
        -1         0 # stress period 40
        -1         0 # stress period 41
        -1         0 # stress period 42
        -1         0 # stress period 43
        -1         0 # stress period 44
        -1         0 # stress period 45
        -1         0 # stress period 46
        -1         0 # stress period 47
        -1         0 # stress period 48
        -1         0 # stress period 49
        -1         0 # stress period 50
        -1         0 # stress period 51
        -1         0 # stress period 52
        -1         0 # stress period 53
        -1         0 # stress period 54
        -1         0 # stress period 55
        -1         0 # stress period 56
        -1         0 # stress period 57
        -1         0 # stress period 58
        -1         0 # stress period 59
        -1         0 # stress period 60
        -1         0 # stress period 61
        -1         0 # stress period 62
        -1         0 # stress period 63
        -1         0 # stress period 64
        -1         0 # stress period 65
        -1         0 # stress period 66
        -1         0 # stress period 67
        -1         0 # stress period 68
        -1         0 # stress period 69
        -1         0 # stress period 70
        -1         0 # stress period 71
        -1         0 # stress period 72
        -1         0 # stress period 73
        -1         0 # stress period 74
        -1         0 # stress period 75
        -1         0 # stress period 76
        -1         0 # stress period 77
        -1         0 # stress period 78
        -1         0 # stress period 79
        -1         0 # stress period 80
        -1         0 # stress period 81
        -1         0 # stress period 82
        -1         0 # stress period 83
        -1         0 # stress period 84
        -1         0 # stress period 85
        -1         0 # stress period 86
        -1         0 # stress period 87
        -1         0 # stress period 88
        -1         0 # stress period 89
        -1         0 # stress period 90
        -1         0 # stress period 91
        -1         0 # stress period 92
        -1         0 # stress period 93
        -1         0 # stress period 94
        -1         0 # stress period 95
        -1         0 # stress period 96
        -1         0 # stress period 97
        -1         0 # stress period 98
        -1         0 # stress period 99
        -1         0 # stress period 100
        -1         0 # stress period 101
        -1         0 # stress period 102
        -1         0 # stress period 103
        -1         0 # stress period 104
        -1         0 # stress period 105
        -1         0 # stress period 106
        -1         0 # stress period 107
        -1         0 # stress period 108
        -1         0 # stress period 109
