# GHB package for MODFLOW-NWT generated by Flopy 3.3.5
       108         1
       108         0 # stress period 1
         1         1        68        57      0.01
         1         1        69        57      0.01
         1         1        70        57      0.01
         1         1        71        57      0.01
         1         1        72        57      0.01
         1         1        73        57      0.01
         1         1        74        57      0.01
         1         1        75        57      0.01
         1         1        76        57      0.01
         1         1        77        57      0.01
         1         1        78        57      0.01
         1         1        79        57      0.01
         1         1        80        57      0.01
         1         1        81        57      0.01
         1         1        82        57      0.01
         1         1        83        57      0.01
         1         1        84        57      0.01
         1         1        85        57      0.01
         1         1        86        57      0.01
         1         1        87        57      0.01
         1         1        88        57      0.01
         1         1        89        57      0.01
         1         1        90        57      0.01
         1         1        91        57      0.01
         1         1        92        57      0.01
         1         1        93        57      0.01
         1         1        94        57      0.01
         1         1        95        57      0.01
         1         1        96        57      0.01
         1         1        97        57      0.01
         1         1        98        57      0.01
         1         1        99        57      0.01
         1         1       100        57      0.01
         1         1       101        57      0.01
         1         1       102        57      0.01
         1         1       103        57      0.01
         1         1       104        57      0.01
         1         1       105        57      0.01
         1         1       106        57      0.01
         1         1       107        57      0.01
         1         1       108        57      0.01
         1         1       109        57      0.01
         1         1       110        57      0.01
         1         1       111        57      0.01
         1         1       112        57      0.01
         1         1       113        57      0.01
         1         1       114        57      0.01
         1         1       115        57      0.01
         1         1       116        57      0.01
         1         1       117        57      0.01
         1         1       118        57      0.01
         1         1       119        57      0.01
         1         1       120        57      0.01
         1         1       121        57      0.01
         1         1       122        57      0.01
         1         1       123        57      0.01
         1         1       124        57      0.01
         1         1       125        57      0.01
         1       147         1     108.8      0.01
         1       148         1      31.4      0.01
         1       149         1        23      0.01
         1       150         1      23.1      0.01
         1       151         1        22      0.01
         1       152         1        22      0.01
         1       153         1        22      0.01
         2         1        83        67      0.01
         2         1        84      71.2      0.01
         2         1        85      91.4      0.01
         2         1        86        88      0.01
         2         1        87      86.8      0.01
         2         1        88      87.1      0.01
         2         1        89      90.2      0.01
         2         1        90      87.3      0.01
         2         1        91        67      0.01
         2         1        92      86.4      0.01
         2         1        93      88.9      0.01
         2         1        94      90.3      0.01
         2         1        95      91.4      0.01
         2         1        96      90.4      0.01
         2         1        97      90.8      0.01
         2         1        98      89.7      0.01
         2         1        99      90.2      0.01
         2         1       100      90.4      0.01
         2         1       101      59.2      0.01
         2         1       102      59.3      0.01
         2         1       103        68      0.01
         2         1       104      70.2      0.01
         2         1       105      82.9      0.01
         2         1       106      90.1      0.01
         2         1       107     110.5      0.01
         2         1       108     108.3      0.01
         2         1       109     105.6      0.01
         2         1       110     105.4      0.01
         2         1       111     105.5      0.01
         2         1       112     106.9      0.01
         2         1       113     108.7      0.01
         2         1       114     109.8      0.01
         2         1       115     111.3      0.01
         2         1       116     107.2      0.01
         2         1       117     108.9      0.01
         2       147         1     108.8      0.01
         2       148         1      31.4      0.01
         2       149         1        23      0.01
         2       150         1      23.1      0.01
         2       150         1      23.1      0.01
         2       151         1        22      0.01
         2       152         1        22      0.01
         2       153         1        22      0.01
        -1         0 # stress period 2
        -1         0 # stress period 3
        -1         0 # stress period 4
        -1         0 # stress period 5
        -1         0 # stress period 6
        -1         0 # stress period 7
        -1         0 # stress period 8
        -1         0 # stress period 9
        -1         0 # stress period 10
        -1         0 # stress period 11
        -1         0 # stress period 12
        -1         0 # stress period 13
        -1         0 # stress period 14
        -1         0 # stress period 15
        -1         0 # stress period 16
        -1         0 # stress period 17
        -1         0 # stress period 18
        -1         0 # stress period 19
        -1         0 # stress period 20
        -1         0 # stress period 21
        -1         0 # stress period 22
        -1         0 # stress period 23
        -1         0 # stress period 24
        -1         0 # stress period 25
        -1         0 # stress period 26
        -1         0 # stress period 27
        -1         0 # stress period 28
        -1         0 # stress period 29
        -1         0 # stress period 30
        -1         0 # stress period 31
        -1         0 # stress period 32
        -1         0 # stress period 33
        -1         0 # stress period 34
        -1         0 # stress period 35
        -1         0 # stress period 36
        -1         0 # stress period 37
        -1         0 # stress period 38
        -1         0 # stress period 39
        -1         0 # stress period 40
        -1         0 # stress period 41
        -1         0 # stress period 42
        -1         0 # stress period 43
        -1         0 # stress period 44
        -1         0 # stress period 45
        -1         0 # stress period 46
        -1         0 # stress period 47
        -1         0 # stress period 48
        -1         0 # stress period 49
        -1         0 # stress period 50
        -1         0 # stress period 51
        -1         0 # stress period 52
        -1         0 # stress period 53
        -1         0 # stress period 54
        -1         0 # stress period 55
        -1         0 # stress period 56
        -1         0 # stress period 57
        -1         0 # stress period 58
        -1         0 # stress period 59
        -1         0 # stress period 60
        -1         0 # stress period 61
        -1         0 # stress period 62
        -1         0 # stress period 63
        -1         0 # stress period 64
        -1         0 # stress period 65
        -1         0 # stress period 66
        -1         0 # stress period 67
        -1         0 # stress period 68
        -1         0 # stress period 69
        -1         0 # stress period 70
        -1         0 # stress period 71
        -1         0 # stress period 72
        -1         0 # stress period 73
        -1         0 # stress period 74
        -1         0 # stress period 75
        -1         0 # stress period 76
        -1         0 # stress period 77
        -1         0 # stress period 78
        -1         0 # stress period 79
        -1         0 # stress period 80
        -1         0 # stress period 81
        -1         0 # stress period 82
        -1         0 # stress period 83
        -1         0 # stress period 84
        -1         0 # stress period 85
        -1         0 # stress period 86
        -1         0 # stress period 87
        -1         0 # stress period 88
        -1         0 # stress period 89
        -1         0 # stress period 90
        -1         0 # stress period 91
        -1         0 # stress period 92
        -1         0 # stress period 93
        -1         0 # stress period 94
        -1         0 # stress period 95
        -1         0 # stress period 96
        -1         0 # stress period 97
        -1         0 # stress period 98
        -1         0 # stress period 99
        -1         0 # stress period 100
        -1         0 # stress period 101
        -1         0 # stress period 102
        -1         0 # stress period 103
        -1         0 # stress period 104
        -1         0 # stress period 105
        -1         0 # stress period 106
        -1         0 # stress period 107
        -1         0 # stress period 108
        -1         0 # stress period 109
        -1         0 # stress period 110
        -1         0 # stress period 111
        -1         0 # stress period 112
        -1         0 # stress period 113
        -1         0 # stress period 114
        -1         0 # stress period 115
        -1         0 # stress period 116
        -1         0 # stress period 117
        -1         0 # stress period 118
        -1         0 # stress period 119
        -1         0 # stress period 120
        -1         0 # stress period 121
        -1         0 # stress period 122
        -1         0 # stress period 123
        -1         0 # stress period 124
        -1         0 # stress period 125
        -1         0 # stress period 126
        -1         0 # stress period 127
        -1         0 # stress period 128
        -1         0 # stress period 129
        -1         0 # stress period 130
        -1         0 # stress period 131
        -1         0 # stress period 132
        -1         0 # stress period 133
        -1         0 # stress period 134
        -1         0 # stress period 135
        -1         0 # stress period 136
        -1         0 # stress period 137
        -1         0 # stress period 138
        -1         0 # stress period 139
        -1         0 # stress period 140
        -1         0 # stress period 141
        -1         0 # stress period 142
        -1         0 # stress period 143
        -1         0 # stress period 144
        -1         0 # stress period 145
        -1         0 # stress period 146
        -1         0 # stress period 147
        -1         0 # stress period 148
        -1         0 # stress period 149
        -1         0 # stress period 150
        -1         0 # stress period 151
        -1         0 # stress period 152
        -1         0 # stress period 153
        -1         0 # stress period 154
        -1         0 # stress period 155
        -1         0 # stress period 156
        -1         0 # stress period 157
        -1         0 # stress period 158
        -1         0 # stress period 159
        -1         0 # stress period 160
        -1         0 # stress period 161
        -1         0 # stress period 162
        -1         0 # stress period 163
        -1         0 # stress period 164
        -1         0 # stress period 165
        -1         0 # stress period 166
        -1         0 # stress period 167
        -1         0 # stress period 168
        -1         0 # stress period 169
        -1         0 # stress period 170
        -1         0 # stress period 171
        -1         0 # stress period 172
        -1         0 # stress period 173
        -1         0 # stress period 174
        -1         0 # stress period 175
        -1         0 # stress period 176
        -1         0 # stress period 177
        -1         0 # stress period 178
        -1         0 # stress period 179
        -1         0 # stress period 180
        -1         0 # stress period 181
        -1         0 # stress period 182
        -1         0 # stress period 183
        -1         0 # stress period 184
        -1         0 # stress period 185
        -1         0 # stress period 186
        -1         0 # stress period 187
        -1         0 # stress period 188
        -1         0 # stress period 189
        -1         0 # stress period 190
        -1         0 # stress period 191
        -1         0 # stress period 192
        -1         0 # stress period 193
        -1         0 # stress period 194
        -1         0 # stress period 195
        -1         0 # stress period 196
        -1         0 # stress period 197
        -1         0 # stress period 198
        -1         0 # stress period 199
        -1         0 # stress period 200
        -1         0 # stress period 201
        -1         0 # stress period 202
        -1         0 # stress period 203
        -1         0 # stress period 204
        -1         0 # stress period 205
        -1         0 # stress period 206
        -1         0 # stress period 207
        -1         0 # stress period 208
        -1         0 # stress period 209
        -1         0 # stress period 210
        -1         0 # stress period 211
        -1         0 # stress period 212
        -1         0 # stress period 213
        -1         0 # stress period 214
        -1         0 # stress period 215
        -1         0 # stress period 216
        -1         0 # stress period 217
        -1         0 # stress period 218
        -1         0 # stress period 219
        -1         0 # stress period 220
        -1         0 # stress period 221
        -1         0 # stress period 222
        -1         0 # stress period 223
        -1         0 # stress period 224
        -1         0 # stress period 225
        -1         0 # stress period 226
        -1         0 # stress period 227
        -1         0 # stress period 228
        -1         0 # stress period 229
        -1         0 # stress period 230
        -1         0 # stress period 231
        -1         0 # stress period 232
        -1         0 # stress period 233
        -1         0 # stress period 234
        -1         0 # stress period 235
        -1         0 # stress period 236
        -1         0 # stress period 237
        -1         0 # stress period 238
        -1         0 # stress period 239
        -1         0 # stress period 240
        -1         0 # stress period 241
        -1         0 # stress period 242
        -1         0 # stress period 243
        -1         0 # stress period 244
        -1         0 # stress period 245
        -1         0 # stress period 246
        -1         0 # stress period 247
        -1         0 # stress period 248
        -1         0 # stress period 249
        -1         0 # stress period 250
        -1         0 # stress period 251
        -1         0 # stress period 252
        -1         0 # stress period 253
        -1         0 # stress period 254
        -1         0 # stress period 255
        -1         0 # stress period 256
        -1         0 # stress period 257
        -1         0 # stress period 258
        -1         0 # stress period 259
        -1         0 # stress period 260
        -1         0 # stress period 261
        -1         0 # stress period 262
        -1         0 # stress period 263
        -1         0 # stress period 264
        -1         0 # stress period 265
        -1         0 # stress period 266
        -1         0 # stress period 267
        -1         0 # stress period 268
        -1         0 # stress period 269
        -1         0 # stress period 270
        -1         0 # stress period 271
        -1         0 # stress period 272
        -1         0 # stress period 273
        -1         0 # stress period 274
        -1         0 # stress period 275
        -1         0 # stress period 276
        -1         0 # stress period 277
        -1         0 # stress period 278
        -1         0 # stress period 279
        -1         0 # stress period 280
        -1         0 # stress period 281
        -1         0 # stress period 282
        -1         0 # stress period 283
        -1         0 # stress period 284
        -1         0 # stress period 285
        -1         0 # stress period 286
        -1         0 # stress period 287
        -1         0 # stress period 288
        -1         0 # stress period 289
        -1         0 # stress period 290
        -1         0 # stress period 291
        -1         0 # stress period 292
        -1         0 # stress period 293
        -1         0 # stress period 294
        -1         0 # stress period 295
        -1         0 # stress period 296
        -1         0 # stress period 297
        -1         0 # stress period 298
        -1         0 # stress period 299
        -1         0 # stress period 300
        -1         0 # stress period 301
        -1         0 # stress period 302
        -1         0 # stress period 303
        -1         0 # stress period 304
        -1         0 # stress period 305
        -1         0 # stress period 306
        -1         0 # stress period 307
        -1         0 # stress period 308
        -1         0 # stress period 309
        -1         0 # stress period 310
        -1         0 # stress period 311
        -1         0 # stress period 312
        -1         0 # stress period 313
        -1         0 # stress period 314
        -1         0 # stress period 315
        -1         0 # stress period 316
        -1         0 # stress period 317
        -1         0 # stress period 318
        -1         0 # stress period 319
        -1         0 # stress period 320
        -1         0 # stress period 321
        -1         0 # stress period 322
        -1         0 # stress period 323
        -1         0 # stress period 324
        -1         0 # stress period 325
        -1         0 # stress period 326
        -1         0 # stress period 327
        -1         0 # stress period 328
        -1         0 # stress period 329
        -1         0 # stress period 330
        -1         0 # stress period 331
        -1         0 # stress period 332
        -1         0 # stress period 333
        -1         0 # stress period 334
        -1         0 # stress period 335
        -1         0 # stress period 336
        -1         0 # stress period 337
        -1         0 # stress period 338
        -1         0 # stress period 339
        -1         0 # stress period 340
        -1         0 # stress period 341
        -1         0 # stress period 342
        -1         0 # stress period 343
        -1         0 # stress period 344
        -1         0 # stress period 345
        -1         0 # stress period 346
        -1         0 # stress period 347
        -1         0 # stress period 348
        -1         0 # stress period 349
        -1         0 # stress period 350
        -1         0 # stress period 351
        -1         0 # stress period 352
        -1         0 # stress period 353
        -1         0 # stress period 354
        -1         0 # stress period 355
        -1         0 # stress period 356
        -1         0 # stress period 357
        -1         0 # stress period 358
        -1         0 # stress period 359
        -1         0 # stress period 360
        -1         0 # stress period 361
        -1         0 # stress period 362
        -1         0 # stress period 363
        -1         0 # stress period 364
        -1         0 # stress period 365
