# OC package for MODFLOW-2005 generated by Flopy 3.3.5
HEAD PRINT FORMAT   0
HEAD SAVE UNIT   336
DRAWDOWN PRINT FORMAT   0

period 1 step 1 
  PRINT BUDGET
  SAVE BUDGET




period 1 step 2 
  PRINT BUDGET
  SAVE BUDGET




period 1 step 3 
  PRINT BUDGET
  SAVE BUDGET




period 1 step 4 
  PRINT BUDGET
  SAVE BUDGET




period 1 step 5 
  PRINT BUDGET
  SAVE BUDGET




period 1 step 6 
  PRINT BUDGET
  SAVE BUDGET

   SAVE HEAD


period 1 step 7 
  PRINT BUDGET
  SAVE BUDGET




period 1 step 8 
  PRINT BUDGET
  SAVE BUDGET


period 1 step 9 
  PRINT BUDGET


period 1 step 10 
  PRINT BUDGET


period 1 step 11 
  PRINT BUDGET


period 1 step 12 
  PRINT BUDGET


period 1 step 13 
  PRINT BUDGET


period 1 step 14 
  PRINT BUDGET


period 1 step 15 
  PRINT BUDGET


period 1 step 16 
  PRINT BUDGET


period 1 step 17 
  PRINT BUDGET


period 1 step 18 
  PRINT BUDGET


period 1 step 19 
  PRINT BUDGET


period 1 step 20 
  PRINT BUDGET


period 1 step 21 
  PRINT BUDGET


period 1 step 22 
  PRINT BUDGET


period 1 step 23 
  PRINT BUDGET


period 1 step 24 
  PRINT BUDGET
  SAVE BUDGET

   SAVE HEAD

period 2 step 1 
  PRINT BUDGET


period 2 step 2 
  PRINT BUDGET


period 2 step 3 
  PRINT BUDGET


period 2 step 4 
  PRINT BUDGET


period 2 step 5 
  PRINT BUDGET


period 2 step 6 
  PRINT BUDGET


period 2 step 7 
  PRINT BUDGET


period 2 step 8 
  PRINT BUDGET


period 2 step 9 
  PRINT BUDGET


period 2 step 10 
  PRINT BUDGET


period 2 step 11 
  PRINT BUDGET


period 2 step 12 
  PRINT BUDGET


period 2 step 13 
  PRINT BUDGET


period 2 step 14 
  PRINT BUDGET


period 2 step 15 
  PRINT BUDGET


period 2 step 16 
  PRINT BUDGET


period 2 step 17 
  PRINT BUDGET


period 2 step 18 
  PRINT BUDGET


period 2 step 19 
  PRINT BUDGET


period 2 step 20 
  PRINT BUDGET


period 2 step 21 
  PRINT BUDGET


period 2 step 22 
  PRINT BUDGET


period 2 step 23 
  PRINT BUDGET


period 2 step 24 
  PRINT BUDGET
  SAVE BUDGET

     SAVE HEAD

period 3 step 1 
  PRINT BUDGET


period 3 step 2 
  PRINT BUDGET


period 3 step 3 
  PRINT BUDGET


period 3 step 4 
  PRINT BUDGET


period 3 step 5 
  PRINT BUDGET


period 3 step 6 
  PRINT BUDGET


period 3 step 7 
  PRINT BUDGET


period 3 step 8 
  PRINT BUDGET


period 3 step 9 
  PRINT BUDGET


period 3 step 10 
  PRINT BUDGET


period 3 step 11 
  PRINT BUDGET


period 3 step 12 
  PRINT BUDGET


period 3 step 13 
  PRINT BUDGET


period 3 step 14 
  PRINT BUDGET


period 3 step 15 
  PRINT BUDGET


period 3 step 16 
  PRINT BUDGET


period 3 step 17 
  PRINT BUDGET


period 3 step 18 
  PRINT BUDGET


period 3 step 19 
  PRINT BUDGET


period 3 step 20 
  PRINT BUDGET


period 3 step 21 
  PRINT BUDGET


period 3 step 22 
  PRINT BUDGET


period 3 step 23 
  PRINT BUDGET


period 3 step 24 
  PRINT BUDGET
  SAVE BUDGET

   SAVE HEAD

period 4 step 1 
  PRINT BUDGET


period 4 step 2 
  PRINT BUDGET


period 4 step 3 
  PRINT BUDGET


period 4 step 4 
  PRINT BUDGET


period 4 step 5 
  PRINT BUDGET


period 4 step 6 
  PRINT BUDGET


period 4 step 7 
  PRINT BUDGET


period 4 step 8 
  PRINT BUDGET


period 4 step 9 
  PRINT BUDGET


period 4 step 10 
  PRINT BUDGET


period 4 step 11 
  PRINT BUDGET


period 4 step 12 
  PRINT BUDGET


period 4 step 13 
  PRINT BUDGET


period 4 step 14 
  PRINT BUDGET


period 4 step 15 
  PRINT BUDGET


period 4 step 16 
  PRINT BUDGET


period 4 step 17 
  PRINT BUDGET


period 4 step 18 
  PRINT BUDGET


period 4 step 19 
  PRINT BUDGET


period 4 step 20 
  PRINT BUDGET


period 4 step 21 
  PRINT BUDGET


period 4 step 22 
  PRINT BUDGET


period 4 step 23 
  PRINT BUDGET


period 4 step 24 
  PRINT BUDGET
  SAVE BUDGET

   SAVE HEAD


period 5 step 1 
  PRINT BUDGET


period 5 step 2 
  PRINT BUDGET


period 5 step 3 
  PRINT BUDGET


period 5 step 4 
  PRINT BUDGET


period 5 step 5 
  PRINT BUDGET


period 5 step 6 
  PRINT BUDGET


period 5 step 7 
  PRINT BUDGET


period 5 step 8 
  PRINT BUDGET


period 5 step 9 
  PRINT BUDGET


period 5 step 10 
  PRINT BUDGET


period 5 step 11 
  PRINT BUDGET


period 5 step 12 
  PRINT BUDGET


period 5 step 13 
  PRINT BUDGET


period 5 step 14 
  PRINT BUDGET


period 5 step 15 
  PRINT BUDGET


period 5 step 16 
  PRINT BUDGET


period 5 step 17 
  PRINT BUDGET


period 5 step 18 
  PRINT BUDGET


period 5 step 19 
  PRINT BUDGET


period 5 step 20 
  PRINT BUDGET


period 5 step 21 
  PRINT BUDGET


period 5 step 22 
  PRINT BUDGET


period 5 step 23 
  PRINT BUDGET


period 5 step 24 
  PRINT BUDGET
  SAVE BUDGET

   SAVE HEAD


period 6 step 1 
  PRINT BUDGET


period 6 step 2 
  PRINT BUDGET


period 6 step 3 
  PRINT BUDGET


period 6 step 4 
  PRINT BUDGET


period 6 step 5 
  PRINT BUDGET


period 6 step 6 
  PRINT BUDGET


period 6 step 7 
  PRINT BUDGET


period 6 step 8 
  PRINT BUDGET


period 6 step 9 
  PRINT BUDGET


period 6 step 10 
  PRINT BUDGET


period 6 step 11 
  PRINT BUDGET


period 6 step 12 
  PRINT BUDGET


period 6 step 13 
  PRINT BUDGET


period 6 step 14 
  PRINT BUDGET


period 6 step 15 
  PRINT BUDGET


period 6 step 16 
  PRINT BUDGET


period 6 step 17 
  PRINT BUDGET


period 6 step 18 
  PRINT BUDGET


period 6 step 19 
  PRINT BUDGET


period 6 step 20 
  PRINT BUDGET


period 6 step 21 
  PRINT BUDGET


period 6 step 22 
  PRINT BUDGET


period 6 step 23 
  PRINT BUDGET


period 6 step 24 
  PRINT BUDGET
  SAVE BUDGET

   SAVE HEAD


period 7 step 1 
  PRINT BUDGET


period 7 step 2 
  PRINT BUDGET


period 7 step 3 
  PRINT BUDGET


period 7 step 4 
  PRINT BUDGET


period 7 step 5 
  PRINT BUDGET


period 7 step 6 
  PRINT BUDGET


period 7 step 7 
  PRINT BUDGET


period 7 step 8 
  PRINT BUDGET


period 7 step 9 
  PRINT BUDGET


period 7 step 10 
  PRINT BUDGET


period 7 step 11 
  PRINT BUDGET


period 7 step 12 
  PRINT BUDGET


period 7 step 13 
  PRINT BUDGET


period 7 step 14 
  PRINT BUDGET


period 7 step 15 
  PRINT BUDGET


period 7 step 16 
  PRINT BUDGET


period 7 step 17 
  PRINT BUDGET


period 7 step 18 
  PRINT BUDGET


period 7 step 19 
  PRINT BUDGET


period 7 step 20 
  PRINT BUDGET


period 7 step 21 
  PRINT BUDGET


period 7 step 22 
  PRINT BUDGET


period 7 step 23 
  PRINT BUDGET


period 7 step 24 
  PRINT BUDGET
  SAVE BUDGET

   SAVE HEAD


period 8 step 1 
  PRINT BUDGET


period 8 step 2 
  PRINT BUDGET


period 8 step 3 
  PRINT BUDGET


period 8 step 4 
  PRINT BUDGET


period 8 step 5 
  PRINT BUDGET


period 8 step 6 
  PRINT BUDGET


period 8 step 7 
  PRINT BUDGET


period 8 step 8 
  PRINT BUDGET


period 8 step 9 
  PRINT BUDGET


period 8 step 10 
  PRINT BUDGET


period 8 step 11 
  PRINT BUDGET


period 8 step 12 
  PRINT BUDGET


period 8 step 13 
  PRINT BUDGET


period 8 step 14 
  PRINT BUDGET


period 8 step 15 
  PRINT BUDGET


period 8 step 16 
  PRINT BUDGET


period 8 step 17 
  PRINT BUDGET


period 8 step 18 
  PRINT BUDGET


period 8 step 19 
  PRINT BUDGET


period 8 step 20 
  PRINT BUDGET


period 8 step 21 
  PRINT BUDGET


period 8 step 22 
  PRINT BUDGET


period 8 step 23 
  PRINT BUDGET


period 8 step 24 
  PRINT BUDGET
  SAVE BUDGET

   SAVE HEAD


period 9 step 1 
  PRINT BUDGET


period 9 step 2 
  PRINT BUDGET


period 9 step 3 
  PRINT BUDGET


period 9 step 4 
  PRINT BUDGET


period 9 step 5 
  PRINT BUDGET


period 9 step 6 
  PRINT BUDGET


period 9 step 7 
  PRINT BUDGET


period 9 step 8 
  PRINT BUDGET


period 9 step 9 
  PRINT BUDGET


period 9 step 10 
  PRINT BUDGET


period 9 step 11 
  PRINT BUDGET


period 9 step 12 
  PRINT BUDGET


period 9 step 13 
  PRINT BUDGET


period 9 step 14 
  PRINT BUDGET


period 9 step 15 
  PRINT BUDGET


period 9 step 16 
  PRINT BUDGET


period 9 step 17 
  PRINT BUDGET


period 9 step 18 
  PRINT BUDGET


period 9 step 19 
  PRINT BUDGET


period 9 step 20 
  PRINT BUDGET


period 9 step 21 
  PRINT BUDGET


period 9 step 22 
  PRINT BUDGET


period 9 step 23 
  PRINT BUDGET


period 9 step 24 
  PRINT BUDGET
  SAVE BUDGET

   SAVE HEAD


period 10 step 1 
  PRINT BUDGET


period 10 step 2 
  PRINT BUDGET


period 10 step 3 
  PRINT BUDGET


period 10 step 4 
  PRINT BUDGET


period 10 step 5 
  PRINT BUDGET


period 10 step 6 
  PRINT BUDGET


period 10 step 7 
  PRINT BUDGET


period 10 step 8 
  PRINT BUDGET


period 10 step 9 
  PRINT BUDGET


period 10 step 10 
  PRINT BUDGET


period 10 step 11 
  PRINT BUDGET


period 10 step 12 
  PRINT BUDGET


period 10 step 13 
  PRINT BUDGET


period 10 step 14 
  PRINT BUDGET


period 10 step 15 
  PRINT BUDGET


period 10 step 16 
  PRINT BUDGET


period 10 step 17 
  PRINT BUDGET


period 10 step 18 
  PRINT BUDGET


period 10 step 19 
  PRINT BUDGET


period 10 step 20 
  PRINT BUDGET


period 10 step 21 
  PRINT BUDGET


period 10 step 22 
  PRINT BUDGET


period 10 step 23 
  PRINT BUDGET


period 10 step 24 
  PRINT BUDGET
  SAVE BUDGET

   SAVE HEAD


period 11 step 1 
  PRINT BUDGET


period 11 step 2 
  PRINT BUDGET


period 11 step 3 
  PRINT BUDGET


period 11 step 4 
  PRINT BUDGET


period 11 step 5 
  PRINT BUDGET


period 11 step 6 
  PRINT BUDGET


period 11 step 7 
  PRINT BUDGET


period 11 step 8 
  PRINT BUDGET


period 11 step 9 
  PRINT BUDGET


period 11 step 10 
  PRINT BUDGET


period 11 step 11 
  PRINT BUDGET


period 11 step 12 
  PRINT BUDGET


period 11 step 13 
  PRINT BUDGET


period 11 step 14 
  PRINT BUDGET


period 11 step 15 
  PRINT BUDGET


period 11 step 16 
  PRINT BUDGET


period 11 step 17 
  PRINT BUDGET


period 11 step 18 
  PRINT BUDGET


period 11 step 19 
  PRINT BUDGET


period 11 step 20 
  PRINT BUDGET


period 11 step 21 
  PRINT BUDGET


period 11 step 22 
  PRINT BUDGET


period 11 step 23 
  PRINT BUDGET


period 11 step 24 
  PRINT BUDGET
  SAVE BUDGET

   SAVE HEAD


period 12 step 1 
  PRINT BUDGET


period 12 step 2 
  PRINT BUDGET


period 12 step 3 
  PRINT BUDGET


period 12 step 4 
  PRINT BUDGET


period 12 step 5 
  PRINT BUDGET


period 12 step 6 
  PRINT BUDGET


period 12 step 7 
  PRINT BUDGET


period 12 step 8 
  PRINT BUDGET


period 12 step 9 
  PRINT BUDGET


period 12 step 10 
  PRINT BUDGET


period 12 step 11 
  PRINT BUDGET


period 12 step 12 
  PRINT BUDGET


period 12 step 13 
  PRINT BUDGET


period 12 step 14 
  PRINT BUDGET


period 12 step 15 
  PRINT BUDGET


period 12 step 16 
  PRINT BUDGET


period 12 step 17 
  PRINT BUDGET


period 12 step 18 
  PRINT BUDGET


period 12 step 19 
  PRINT BUDGET


period 12 step 20 
  PRINT BUDGET


period 12 step 21 
  PRINT BUDGET


period 12 step 22 
  PRINT BUDGET


period 12 step 23 
  PRINT BUDGET


period 12 step 24 
  PRINT BUDGET
  SAVE BUDGET

   SAVE HEAD


period 13 step 1 
  PRINT BUDGET


period 13 step 2 
  PRINT BUDGET


period 13 step 3 
  PRINT BUDGET


period 13 step 4 
  PRINT BUDGET


period 13 step 5 
  PRINT BUDGET


period 13 step 6 
  PRINT BUDGET


period 13 step 7 
  PRINT BUDGET


period 13 step 8 
  PRINT BUDGET


period 13 step 9 
  PRINT BUDGET


period 13 step 10 
  PRINT BUDGET


period 13 step 11 
  PRINT BUDGET


period 13 step 12 
  PRINT BUDGET


period 13 step 13 
  PRINT BUDGET


period 13 step 14 
  PRINT BUDGET


period 13 step 15 
  PRINT BUDGET


period 13 step 16 
  PRINT BUDGET


period 13 step 17 
  PRINT BUDGET


period 13 step 18 
  PRINT BUDGET


period 13 step 19 
  PRINT BUDGET


period 13 step 20 
  PRINT BUDGET


period 13 step 21 
  PRINT BUDGET


period 13 step 22 
  PRINT BUDGET


period 13 step 23 
  PRINT BUDGET


period 13 step 24 
  PRINT BUDGET
  SAVE BUDGET

   SAVE HEAD


period 14 step 1 
  PRINT BUDGET


period 14 step 2 
  PRINT BUDGET


period 14 step 3 
  PRINT BUDGET


period 14 step 4 
  PRINT BUDGET


period 14 step 5 
  PRINT BUDGET


period 14 step 6 
  PRINT BUDGET


period 14 step 7 
  PRINT BUDGET


period 14 step 8 
  PRINT BUDGET


period 14 step 9 
  PRINT BUDGET


period 14 step 10 
  PRINT BUDGET


period 14 step 11 
  PRINT BUDGET


period 14 step 12 
  PRINT BUDGET


period 14 step 13 
  PRINT BUDGET


period 14 step 14 
  PRINT BUDGET


period 14 step 15 
  PRINT BUDGET


period 14 step 16 
  PRINT BUDGET


period 14 step 17 
  PRINT BUDGET


period 14 step 18 
  PRINT BUDGET


period 14 step 19 
  PRINT BUDGET


period 14 step 20 
  PRINT BUDGET


period 14 step 21 
  PRINT BUDGET


period 14 step 22 
  PRINT BUDGET


period 14 step 23 
  PRINT BUDGET


period 14 step 24 
  PRINT BUDGET
  SAVE BUDGET

   SAVE HEAD


period 15 step 1 
  PRINT BUDGET


period 15 step 2 
  PRINT BUDGET


period 15 step 3 
  PRINT BUDGET


period 15 step 4 
  PRINT BUDGET


period 15 step 5 
  PRINT BUDGET


period 15 step 6 
  PRINT BUDGET


period 15 step 7 
  PRINT BUDGET


period 15 step 8 
  PRINT BUDGET


period 15 step 9 
  PRINT BUDGET


period 15 step 10 
  PRINT BUDGET


period 15 step 11 
  PRINT BUDGET


period 15 step 12 
  PRINT BUDGET


period 15 step 13 
  PRINT BUDGET


period 15 step 14 
  PRINT BUDGET


period 15 step 15 
  PRINT BUDGET


period 15 step 16 
  PRINT BUDGET


period 15 step 17 
  PRINT BUDGET


period 15 step 18 
  PRINT BUDGET


period 15 step 19 
  PRINT BUDGET


period 15 step 20 
  PRINT BUDGET


period 15 step 21 
  PRINT BUDGET


period 15 step 22 
  PRINT BUDGET


period 15 step 23 
  PRINT BUDGET


period 15 step 24 
  PRINT BUDGET
  SAVE BUDGET

   SAVE HEAD


period 16 step 1 
  PRINT BUDGET


period 16 step 2 
  PRINT BUDGET


period 16 step 3 
  PRINT BUDGET


period 16 step 4 
  PRINT BUDGET


period 16 step 5 
  PRINT BUDGET


period 16 step 6 
  PRINT BUDGET


period 16 step 7 
  PRINT BUDGET


period 16 step 8 
  PRINT BUDGET


period 16 step 9 
  PRINT BUDGET


period 16 step 10 
  PRINT BUDGET


period 16 step 11 
  PRINT BUDGET


period 16 step 12 
  PRINT BUDGET


period 16 step 13 
  PRINT BUDGET


period 16 step 14 
  PRINT BUDGET


period 16 step 15 
  PRINT BUDGET


period 16 step 16 
  PRINT BUDGET


period 16 step 17 
  PRINT BUDGET


period 16 step 18 
  PRINT BUDGET


period 16 step 19 
  PRINT BUDGET


period 16 step 20 
  PRINT BUDGET


period 16 step 21 
  PRINT BUDGET


period 16 step 22 
  PRINT BUDGET


period 16 step 23 
  PRINT BUDGET


period 16 step 24 
  PRINT BUDGET
  SAVE BUDGET

   SAVE HEAD


period 17 step 1 
  PRINT BUDGET


period 17 step 2 
  PRINT BUDGET


period 17 step 3 
  PRINT BUDGET


period 17 step 4 
  PRINT BUDGET


period 17 step 5 
  PRINT BUDGET


period 17 step 6 
  PRINT BUDGET


period 17 step 7 
  PRINT BUDGET


period 17 step 8 
  PRINT BUDGET


period 17 step 9 
  PRINT BUDGET


period 17 step 10 
  PRINT BUDGET


period 17 step 11 
  PRINT BUDGET


period 17 step 12 
  PRINT BUDGET


period 17 step 13 
  PRINT BUDGET


period 17 step 14 
  PRINT BUDGET


period 17 step 15 
  PRINT BUDGET


period 17 step 16 
  PRINT BUDGET


period 17 step 17 
  PRINT BUDGET


period 17 step 18 
  PRINT BUDGET


period 17 step 19 
  PRINT BUDGET


period 17 step 20 
  PRINT BUDGET


period 17 step 21 
  PRINT BUDGET


period 17 step 22 
  PRINT BUDGET


period 17 step 23 
  PRINT BUDGET


period 17 step 24 
  PRINT BUDGET
  SAVE BUDGET

   SAVE HEAD


period 18 step 1 
  PRINT BUDGET


period 18 step 2 
  PRINT BUDGET


period 18 step 3 
  PRINT BUDGET


period 18 step 4 
  PRINT BUDGET


period 18 step 5 
  PRINT BUDGET


period 18 step 6 
  PRINT BUDGET


period 18 step 7 
  PRINT BUDGET


period 18 step 8 
  PRINT BUDGET


period 18 step 9 
  PRINT BUDGET


period 18 step 10 
  PRINT BUDGET


period 18 step 11 
  PRINT BUDGET


period 18 step 12 
  PRINT BUDGET


period 18 step 13 
  PRINT BUDGET


period 18 step 14 
  PRINT BUDGET


period 18 step 15 
  PRINT BUDGET


period 18 step 16 
  PRINT BUDGET


period 18 step 17 
  PRINT BUDGET


period 18 step 18 
  PRINT BUDGET


period 18 step 19 
  PRINT BUDGET


period 18 step 20 
  PRINT BUDGET


period 18 step 21 
  PRINT BUDGET


period 18 step 22 
  PRINT BUDGET


period 18 step 23 
  PRINT BUDGET


period 18 step 24 
  PRINT BUDGET
  SAVE BUDGET

   SAVE HEAD


period 19 step 1 
  PRINT BUDGET


period 19 step 2 
  PRINT BUDGET


period 19 step 3 
  PRINT BUDGET


period 19 step 4 
  PRINT BUDGET


period 19 step 5 
  PRINT BUDGET


period 19 step 6 
  PRINT BUDGET


period 19 step 7 
  PRINT BUDGET


period 19 step 8 
  PRINT BUDGET


period 19 step 9 
  PRINT BUDGET


period 19 step 10 
  PRINT BUDGET


period 19 step 11 
  PRINT BUDGET


period 19 step 12 
  PRINT BUDGET


period 19 step 13 
  PRINT BUDGET


period 19 step 14 
  PRINT BUDGET


period 19 step 15 
  PRINT BUDGET


period 19 step 16 
  PRINT BUDGET


period 19 step 17 
  PRINT BUDGET


period 19 step 18 
  PRINT BUDGET


period 19 step 19 
  PRINT BUDGET


period 19 step 20 
  PRINT BUDGET


period 19 step 21 
  PRINT BUDGET


period 19 step 22 
  PRINT BUDGET


period 19 step 23 
  PRINT BUDGET


period 19 step 24 
  PRINT BUDGET
  SAVE BUDGET

   SAVE HEAD


period 20 step 1 
  PRINT BUDGET


period 20 step 2 
  PRINT BUDGET


period 20 step 3 
  PRINT BUDGET


period 20 step 4 
  PRINT BUDGET


period 20 step 5 
  PRINT BUDGET


period 20 step 6 
  PRINT BUDGET


period 20 step 7 
  PRINT BUDGET


period 20 step 8 
  PRINT BUDGET


period 20 step 9 
  PRINT BUDGET


period 20 step 10 
  PRINT BUDGET


period 20 step 11 
  PRINT BUDGET


period 20 step 12 
  PRINT BUDGET


period 20 step 13 
  PRINT BUDGET


period 20 step 14 
  PRINT BUDGET


period 20 step 15 
  PRINT BUDGET


period 20 step 16 
  PRINT BUDGET


period 20 step 17 
  PRINT BUDGET


period 20 step 18 
  PRINT BUDGET


period 20 step 19 
  PRINT BUDGET


period 20 step 20 
  PRINT BUDGET


period 20 step 21 
  PRINT BUDGET


period 20 step 22 
  PRINT BUDGET


period 20 step 23 
  PRINT BUDGET


period 20 step 24 
  PRINT BUDGET
  SAVE BUDGET

   SAVE HEAD


period 21 step 1 
  PRINT BUDGET


period 21 step 2 
  PRINT BUDGET


period 21 step 3 
  PRINT BUDGET


period 21 step 4 
  PRINT BUDGET


period 21 step 5 
  PRINT BUDGET


period 21 step 6 
  PRINT BUDGET


period 21 step 7 
  PRINT BUDGET


period 21 step 8 
  PRINT BUDGET


period 21 step 9 
  PRINT BUDGET


period 21 step 10 
  PRINT BUDGET


period 21 step 11 
  PRINT BUDGET


period 21 step 12 
  PRINT BUDGET


period 21 step 13 
  PRINT BUDGET


period 21 step 14 
  PRINT BUDGET


period 21 step 15 
  PRINT BUDGET


period 21 step 16 
  PRINT BUDGET


period 21 step 17 
  PRINT BUDGET


period 21 step 18 
  PRINT BUDGET


period 21 step 19 
  PRINT BUDGET


period 21 step 20 
  PRINT BUDGET


period 21 step 21 
  PRINT BUDGET


period 21 step 22 
  PRINT BUDGET


period 21 step 23 
  PRINT BUDGET


period 21 step 24 
  PRINT BUDGET
  SAVE BUDGET

   SAVE HEAD


period 22 step 1 
  PRINT BUDGET


period 22 step 2 
  PRINT BUDGET


period 22 step 3 
  PRINT BUDGET


period 22 step 4 
  PRINT BUDGET


period 22 step 5 
  PRINT BUDGET


period 22 step 6 
  PRINT BUDGET


period 22 step 7 
  PRINT BUDGET


period 22 step 8 
  PRINT BUDGET


period 22 step 9 
  PRINT BUDGET


period 22 step 10 
  PRINT BUDGET


period 22 step 11 
  PRINT BUDGET


period 22 step 12 
  PRINT BUDGET


period 22 step 13 
  PRINT BUDGET


period 22 step 14 
  PRINT BUDGET


period 22 step 15 
  PRINT BUDGET


period 22 step 16 
  PRINT BUDGET


period 22 step 17 
  PRINT BUDGET


period 22 step 18 
  PRINT BUDGET


period 22 step 19 
  PRINT BUDGET


period 22 step 20 
  PRINT BUDGET


period 22 step 21 
  PRINT BUDGET


period 22 step 22 
  PRINT BUDGET


period 22 step 23 
  PRINT BUDGET


period 22 step 24 
  PRINT BUDGET
  SAVE BUDGET

   SAVE HEAD


period 23 step 1 
  PRINT BUDGET


period 23 step 2 
  PRINT BUDGET


period 23 step 3 
  PRINT BUDGET


period 23 step 4 
  PRINT BUDGET


period 23 step 5 
  PRINT BUDGET


period 23 step 6 
  PRINT BUDGET


period 23 step 7 
  PRINT BUDGET


period 23 step 8 
  PRINT BUDGET


period 23 step 9 
  PRINT BUDGET


period 23 step 10 
  PRINT BUDGET


period 23 step 11 
  PRINT BUDGET


period 23 step 12 
  PRINT BUDGET


period 23 step 13 
  PRINT BUDGET


period 23 step 14 
  PRINT BUDGET


period 23 step 15 
  PRINT BUDGET


period 23 step 16 
  PRINT BUDGET


period 23 step 17 
  PRINT BUDGET


period 23 step 18 
  PRINT BUDGET


period 23 step 19 
  PRINT BUDGET


period 23 step 20 
  PRINT BUDGET


period 23 step 21 
  PRINT BUDGET


period 23 step 22 
  PRINT BUDGET


period 23 step 23 
  PRINT BUDGET


period 23 step 24 
  PRINT BUDGET
  SAVE BUDGET

   SAVE HEAD


period 24 step 1 
  PRINT BUDGET


period 24 step 2 
  PRINT BUDGET


period 24 step 3 
  PRINT BUDGET


period 24 step 4 
  PRINT BUDGET


period 24 step 5 
  PRINT BUDGET


period 24 step 6 
  PRINT BUDGET


period 24 step 7 
  PRINT BUDGET


period 24 step 8 
  PRINT BUDGET


period 24 step 9 
  PRINT BUDGET


period 24 step 10 
  PRINT BUDGET


period 24 step 11 
  PRINT BUDGET


period 24 step 12 
  PRINT BUDGET


period 24 step 13 
  PRINT BUDGET


period 24 step 14 
  PRINT BUDGET


period 24 step 15 
  PRINT BUDGET


period 24 step 16 
  PRINT BUDGET


period 24 step 17 
  PRINT BUDGET


period 24 step 18 
  PRINT BUDGET


period 24 step 19 
  PRINT BUDGET


period 24 step 20 
  PRINT BUDGET


period 24 step 21 
  PRINT BUDGET


period 24 step 22 
  PRINT BUDGET


period 24 step 23 
  PRINT BUDGET


period 24 step 24 
  PRINT BUDGET
  SAVE BUDGET

   SAVE HEAD


period 25 step 1 
  PRINT BUDGET


period 25 step 2 
  PRINT BUDGET


period 25 step 3 
  PRINT BUDGET


period 25 step 4 
  PRINT BUDGET


period 25 step 5 
  PRINT BUDGET


period 25 step 6 
  PRINT BUDGET


period 25 step 7 
  PRINT BUDGET


period 25 step 8 
  PRINT BUDGET


period 25 step 9 
  PRINT BUDGET


period 25 step 10 
  PRINT BUDGET


period 25 step 11 
  PRINT BUDGET


period 25 step 12 
  PRINT BUDGET


period 25 step 13 
  PRINT BUDGET


period 25 step 14 
  PRINT BUDGET


period 25 step 15 
  PRINT BUDGET


period 25 step 16 
  PRINT BUDGET


period 25 step 17 
  PRINT BUDGET


period 25 step 18 
  PRINT BUDGET


period 25 step 19 
  PRINT BUDGET


period 25 step 20 
  PRINT BUDGET


period 25 step 21 
  PRINT BUDGET


period 25 step 22 
  PRINT BUDGET


period 25 step 23 
  PRINT BUDGET


period 25 step 24 
  PRINT BUDGET
  SAVE BUDGET

   SAVE HEAD


period 26 step 1 
  PRINT BUDGET


period 26 step 2 
  PRINT BUDGET


period 26 step 3 
  PRINT BUDGET


period 26 step 4 
  PRINT BUDGET


period 26 step 5 
  PRINT BUDGET


period 26 step 6 
  PRINT BUDGET


period 26 step 7 
  PRINT BUDGET


period 26 step 8 
  PRINT BUDGET


period 26 step 9 
  PRINT BUDGET


period 26 step 10 
  PRINT BUDGET


period 26 step 11 
  PRINT BUDGET


period 26 step 12 
  PRINT BUDGET


period 26 step 13 
  PRINT BUDGET


period 26 step 14 
  PRINT BUDGET


period 26 step 15 
  PRINT BUDGET


period 26 step 16 
  PRINT BUDGET


period 26 step 17 
  PRINT BUDGET


period 26 step 18 
  PRINT BUDGET


period 26 step 19 
  PRINT BUDGET


period 26 step 20 
  PRINT BUDGET


period 26 step 21 
  PRINT BUDGET


period 26 step 22 
  PRINT BUDGET


period 26 step 23 
  PRINT BUDGET


period 26 step 24 
  PRINT BUDGET
  SAVE BUDGET

   SAVE HEAD


period 27 step 1 
  PRINT BUDGET


period 27 step 2 
  PRINT BUDGET


period 27 step 3 
  PRINT BUDGET


period 27 step 4 
  PRINT BUDGET


period 27 step 5 
  PRINT BUDGET


period 27 step 6 
  PRINT BUDGET


period 27 step 7 
  PRINT BUDGET


period 27 step 8 
  PRINT BUDGET


period 27 step 9 
  PRINT BUDGET


period 27 step 10 
  PRINT BUDGET


period 27 step 11 
  PRINT BUDGET


period 27 step 12 
  PRINT BUDGET


period 27 step 13 
  PRINT BUDGET


period 27 step 14 
  PRINT BUDGET


period 27 step 15 
  PRINT BUDGET


period 27 step 16 
  PRINT BUDGET


period 27 step 17 
  PRINT BUDGET


period 27 step 18 
  PRINT BUDGET


period 27 step 19 
  PRINT BUDGET


period 27 step 20 
  PRINT BUDGET


period 27 step 21 
  PRINT BUDGET


period 27 step 22 
  PRINT BUDGET


period 27 step 23 
  PRINT BUDGET


period 27 step 24 
  PRINT BUDGET
  SAVE BUDGET

   SAVE HEAD


period 28 step 1 
  PRINT BUDGET


period 28 step 2 
  PRINT BUDGET


period 28 step 3 
  PRINT BUDGET


period 28 step 4 
  PRINT BUDGET


period 28 step 5 
  PRINT BUDGET


period 28 step 6 
  PRINT BUDGET


period 28 step 7 
  PRINT BUDGET


period 28 step 8 
  PRINT BUDGET


period 28 step 9 
  PRINT BUDGET


period 28 step 10 
  PRINT BUDGET


period 28 step 11 
  PRINT BUDGET


period 28 step 12 
  PRINT BUDGET


period 28 step 13 
  PRINT BUDGET


period 28 step 14 
  PRINT BUDGET


period 28 step 15 
  PRINT BUDGET


period 28 step 16 
  PRINT BUDGET


period 28 step 17 
  PRINT BUDGET


period 28 step 18 
  PRINT BUDGET


period 28 step 19 
  PRINT BUDGET


period 28 step 20 
  PRINT BUDGET


period 28 step 21 
  PRINT BUDGET


period 28 step 22 
  PRINT BUDGET


period 28 step 23 
  PRINT BUDGET


period 28 step 24 
  PRINT BUDGET
  SAVE BUDGET

   SAVE HEAD


period 29 step 1 
  PRINT BUDGET


period 29 step 2 
  PRINT BUDGET


period 29 step 3 
  PRINT BUDGET


period 29 step 4 
  PRINT BUDGET


period 29 step 5 
  PRINT BUDGET


period 29 step 6 
  PRINT BUDGET


period 29 step 7 
  PRINT BUDGET


period 29 step 8 
  PRINT BUDGET


period 29 step 9 
  PRINT BUDGET


period 29 step 10 
  PRINT BUDGET


period 29 step 11 
  PRINT BUDGET


period 29 step 12 
  PRINT BUDGET


period 29 step 13 
  PRINT BUDGET


period 29 step 14 
  PRINT BUDGET


period 29 step 15 
  PRINT BUDGET


period 29 step 16 
  PRINT BUDGET


period 29 step 17 
  PRINT BUDGET


period 29 step 18 
  PRINT BUDGET


period 29 step 19 
  PRINT BUDGET


period 29 step 20 
  PRINT BUDGET


period 29 step 21 
  PRINT BUDGET


period 29 step 22 
  PRINT BUDGET


period 29 step 23 
  PRINT BUDGET


period 29 step 24 
  PRINT BUDGET
  SAVE BUDGET

   SAVE HEAD


period 30 step 1 
  PRINT BUDGET


period 30 step 2 
  PRINT BUDGET


period 30 step 3 
  PRINT BUDGET


period 30 step 4 
  PRINT BUDGET


period 30 step 5 
  PRINT BUDGET


period 30 step 6 
  PRINT BUDGET


period 30 step 7 
  PRINT BUDGET


period 30 step 8 
  PRINT BUDGET


period 30 step 9 
  PRINT BUDGET


period 30 step 10 
  PRINT BUDGET


period 30 step 11 
  PRINT BUDGET


period 30 step 12 
  PRINT BUDGET


period 30 step 13 
  PRINT BUDGET


period 30 step 14 
  PRINT BUDGET


period 30 step 15 
  PRINT BUDGET


period 30 step 16 
  PRINT BUDGET


period 30 step 17 
  PRINT BUDGET


period 30 step 18 
  PRINT BUDGET


period 30 step 19 
  PRINT BUDGET


period 30 step 20 
  PRINT BUDGET


period 30 step 21 
  PRINT BUDGET


period 30 step 22 
  PRINT BUDGET


period 30 step 23 
  PRINT BUDGET


period 30 step 24 
  PRINT BUDGET
  SAVE BUDGET

   SAVE HEAD


period 31 step 1 
  PRINT BUDGET


period 31 step 2 
  PRINT BUDGET


period 31 step 3 
  PRINT BUDGET


period 31 step 4 
  PRINT BUDGET


period 31 step 5 
  PRINT BUDGET


period 31 step 6 
  PRINT BUDGET


period 31 step 7 
  PRINT BUDGET


period 31 step 8 
  PRINT BUDGET


period 31 step 9 
  PRINT BUDGET


period 31 step 10 
  PRINT BUDGET


period 31 step 11 
  PRINT BUDGET


period 31 step 12 
  PRINT BUDGET


period 31 step 13 
  PRINT BUDGET


period 31 step 14 
  PRINT BUDGET


period 31 step 15 
  PRINT BUDGET


period 31 step 16 
  PRINT BUDGET


period 31 step 17 
  PRINT BUDGET


period 31 step 18 
  PRINT BUDGET


period 31 step 19 
  PRINT BUDGET


period 31 step 20 
  PRINT BUDGET


period 31 step 21 
  PRINT BUDGET


period 31 step 22 
  PRINT BUDGET


period 31 step 23 
  PRINT BUDGET


period 31 step 24 
  PRINT BUDGET
  SAVE BUDGET

   SAVE HEAD


period 32 step 1 
  PRINT BUDGET


period 32 step 2 
  PRINT BUDGET


period 32 step 3 
  PRINT BUDGET


period 32 step 4 
  PRINT BUDGET


period 32 step 5 
  PRINT BUDGET


period 32 step 6 
  PRINT BUDGET


period 32 step 7 
  PRINT BUDGET


period 32 step 8 
  PRINT BUDGET


period 32 step 9 
  PRINT BUDGET


period 32 step 10 
  PRINT BUDGET


period 32 step 11 
  PRINT BUDGET


period 32 step 12 
  PRINT BUDGET


period 32 step 13 
  PRINT BUDGET


period 32 step 14 
  PRINT BUDGET


period 32 step 15 
  PRINT BUDGET


period 32 step 16 
  PRINT BUDGET


period 32 step 17 
  PRINT BUDGET


period 32 step 18 
  PRINT BUDGET


period 32 step 19 
  PRINT BUDGET


period 32 step 20 
  PRINT BUDGET


period 32 step 21 
  PRINT BUDGET


period 32 step 22 
  PRINT BUDGET


period 32 step 23 
  PRINT BUDGET


period 32 step 24 
  PRINT BUDGET
  SAVE BUDGET

   SAVE HEAD


period 33 step 1 
  PRINT BUDGET


period 33 step 2 
  PRINT BUDGET


period 33 step 3 
  PRINT BUDGET


period 33 step 4 
  PRINT BUDGET


period 33 step 5 
  PRINT BUDGET


period 33 step 6 
  PRINT BUDGET


period 33 step 7 
  PRINT BUDGET


period 33 step 8 
  PRINT BUDGET


period 33 step 9 
  PRINT BUDGET


period 33 step 10 
  PRINT BUDGET


period 33 step 11 
  PRINT BUDGET


period 33 step 12 
  PRINT BUDGET


period 33 step 13 
  PRINT BUDGET


period 33 step 14 
  PRINT BUDGET


period 33 step 15 
  PRINT BUDGET


period 33 step 16 
  PRINT BUDGET


period 33 step 17 
  PRINT BUDGET


period 33 step 18 
  PRINT BUDGET


period 33 step 19 
  PRINT BUDGET


period 33 step 20 
  PRINT BUDGET


period 33 step 21 
  PRINT BUDGET


period 33 step 22 
  PRINT BUDGET


period 33 step 23 
  PRINT BUDGET


period 33 step 24 
  PRINT BUDGET
  SAVE BUDGET

   SAVE HEAD


period 34 step 1 
  PRINT BUDGET


period 34 step 2 
  PRINT BUDGET


period 34 step 3 
  PRINT BUDGET


period 34 step 4 
  PRINT BUDGET


period 34 step 5 
  PRINT BUDGET


period 34 step 6 
  PRINT BUDGET


period 34 step 7 
  PRINT BUDGET


period 34 step 8 
  PRINT BUDGET


period 34 step 9 
  PRINT BUDGET


period 34 step 10 
  PRINT BUDGET


period 34 step 11 
  PRINT BUDGET


period 34 step 12 
  PRINT BUDGET


period 34 step 13 
  PRINT BUDGET


period 34 step 14 
  PRINT BUDGET


period 34 step 15 
  PRINT BUDGET


period 34 step 16 
  PRINT BUDGET


period 34 step 17 
  PRINT BUDGET


period 34 step 18 
  PRINT BUDGET


period 34 step 19 
  PRINT BUDGET


period 34 step 20 
  PRINT BUDGET


period 34 step 21 
  PRINT BUDGET


period 34 step 22 
  PRINT BUDGET


period 34 step 23 