# PCG package for MODFLOW-2005 generated by Flopy 3.3.5
       100        25         1      9999
 1.000e-04 1.000e+00 1.000e+00         2         5         0 1.000e+00
