# WEL package for MODFLOW-NWT generated by Flopy 3.3.5
        25         1 
        17         0 # stress period 1
         2       134        70 -0.813443
         2       139        70 -0.813443
         2       138        69 -0.813443
         2       138        70 -0.813443
         2       138        71 -0.813443
         2       171        46  -4.28637
         2       171        44  -4.28637
         2       135        70 -0.813443
         2       138        72 -0.813443
         2       150        65  -6.06909
         2       171        45  -4.28637
         2       136        70 -0.813443
         2       137        70 -0.813443
         2       149        65  -6.06909
         2       172        45  -4.28637
         2       149        64  -6.06909
         2       170        45  -4.28637
        22         0 # stress period 2
         2       137        70 -0.353982
         2       171        44  -4.38483
         2       135        70 -0.353982
         2       138        72 -0.353982
         2       174        49 -0.157361
         2       172        45  -4.38483
         2       150        65  -1.52514
         2       136        70 -0.353982
         2       171        45  -4.38483
         2       134        70 -0.353982
         2       175        49 -0.157361
         2       170        45  -4.38483
         2       173        49 -0.157361
         2       139        70 -0.353982
         2       174        50 -0.157361
         2       138        69 -0.353982
         2       174        48 -0.157361
         2       138        70 -0.353982
         2       149        65  -1.52514
         2       138        71 -0.353982
         2       171        46  -4.38483
         2       149        64  -1.52514
        22         0 # stress period 3
         2       139        70  -2.28425
         2       149        64  -5.06282
         2       136        70  -2.28425
         2       172        45  -4.38344
         2       137        70  -2.28425
         2       170        45  -4.38344
         2       138        69  -2.28425
         2       173        49 -0.771428
         2       171        46  -4.38344
         2       171        44  -4.38344
         2       149        65  -5.06282
         2       138        72  -2.28425
         2       174        49 -0.771428
         2       138        71  -2.28425
         2       138        70  -2.28425
         2       150        65  -5.06282
         2       135        70  -2.28425
         2       134        70  -2.28425
         2       171        45  -4.38344
         2       174        50 -0.771428
         2       174        48 -0.771428
         2       175        49 -0.771428
        19         0 # stress period 4
         2       138        69  -1.75826
         2       174        48  -2.48528
         2       174        49  -2.48528
         2       137        70  -1.75826
         2       138        72  -1.75826
         2       171        46  -4.33698
         2       139        70  -1.75826
         2       135        70  -1.75826
         2       170        45  -4.33698
         2       171        45  -4.33698
         2       138        71  -1.75826
         2       171        44  -4.33698
         2       136        70  -1.75826
         2       173        49  -2.48528
         2       174        50  -2.48528
         2       172        45  -4.33698
         2       134        70  -1.75826
         2       175        49  -2.48528
         2       138        70  -1.75826
        19         0 # stress period 5
         2       174        48  -4.28486
         2       173        49  -4.28486
         2       135        70   -2.4748
         2       138        69   -2.4748
         2       137        70   -2.4748
         2       138        71   -2.4748
         2       171        46  -4.35447
         2       170        45  -4.35447
         2       171        45  -4.35447
         2       172        45  -4.35447
         2       136        70   -2.4748
         2       134        70   -2.4748
         2       138        70   -2.4748
         2       138        72   -2.4748
         2       174        50  -4.28486
         2       171        44  -4.35447
         2       174        49  -4.28486
         2       175        49  -4.28486
         2       139        70   -2.4748
        22         0 # stress period 6
         2       171        46  -1.67753
         2       139        70  -2.16892
         2       137        70  -2.16892
         2       174        50   -3.6306
         2       138        69  -2.16892
         2       138        71  -2.16892
         2       171        45  -1.67753
         2       172        45  -1.67753
         2       150        65  -3.15489
         2       136        70  -2.16892
         2       138        70  -2.16892
         2       134        70  -2.16892
         2       138        72  -2.16892
         2       149        65  -3.15489
         2       174        49   -3.6306
         2       171        44  -1.67753
         2       175        49   -3.6306
         2       173        49   -3.6306
         2       174        48   -3.6306
         2       170        45  -1.67753
         2       149        64  -3.15489
         2       135        70  -2.16892
        22         0 # stress period 7
         2       174        48  -2.12077
         2       170        45  -3.74123
         2       134        70  -2.47994
         2       171        44  -3.74123
         2       149        65 -0.991944
         2       137        70  -2.47994
         2       171        45  -3.74123
         2       150        65 -0.991944
         2       136        70  -2.47994
         2       138        70  -2.47994
         2       138        72  -2.47994
         2       172        45  -3.74123
         2       174        49  -2.12077
         2       175        49  -2.12077
         2       149        64 -0.991944
         2       135        70  -2.47994
         2       173        49  -2.12077
         2       174        50  -2.12077
         2       138        71  -2.47994
         2       138        69  -2.47994
         2       139        70  -2.47994
         2       171        46  -3.74123
        19         0 # stress period 8
         2       174        48  -3.42375
         2       171        45  -3.81916
         2       137        70  -2.49558
         2       136        70  -2.49558
         2       171        46  -3.81916
         2       171        44  -3.81916
         2       173        49  -3.42375
         2       174        49  -3.42375
         2       175        49  -3.42375
         2       135        70  -2.49558
         2       172        45  -3.81916
         2       170        45  -3.81916
         2       138        70  -2.49558
         2       138        72  -2.49558
         2       138        71  -2.49558
         2       174        50  -3.42375
         2       138        69  -2.49558
         2       139        70  -2.49558
         2       134        70  -2.49558
        14         0 # stress period 9
         2       138        69  -1.97556
         2       139        70  -1.97556
         2       136        70  -1.97556
         2       138        72  -1.97556
         2       171        46  -4.44672
         2       171        45  -4.44672
         2       138        70  -1.97556
         2       135        70  -1.97556
         2       138        71  -1.97556
         2       134        70  -1.97556
         2       171        44  -4.44672
         2       137        70  -1.97556
         2       172        45  -4.44672
         2       170        45  -4.44672
        14         0 # stress period 10
         2       171        44  -4.41332
         2       171        45  -4.41332
         2       134        70  -1.49923
         2       138        72  -1.49923
         2       138        71  -1.49923
         2       136        70  -1.49923
         2       171        46  -4.41332
         2       135        70  -1.49923
         2       139        70  -1.49923
         2       172        45  -4.41332
         2       138        69  -1.49923
         2       138        70  -1.49923
         2       170        45  -4.41332
         2       137        70  -1.49923
        14         0 # stress period 11
         2       138        72 -0.615821
         2       138        70 -0.615821
         2       138        71 -0.615821
         2       135        70 -0.615821
         2       171        45  -4.41098
         2       170        45  -4.41098
         2       172        45  -4.41098
         2       137        70 -0.615821
         2       134        70 -0.615821
         2       138        69 -0.615821
         2       136        70 -0.615821
         2       171        44  -4.41098
         2       171        46  -4.41098
         2       139        70 -0.615821
        22         0 # stress period 12
         2       149        65  -2.24344
         2       137        70  -2.25012
         2       171        44  -3.24087
         2       150        65  -2.24344
         2       138        70  -2.25012
         2       138        69  -2.25012
         2       171        46  -3.24087
         2       170        45  -3.24087
         2       135        70  -2.25012
         2       175        49-0.0716636
         2       139        70  -2.25012
         2       136        70  -2.25012
         2       138        71  -2.25012
         2       171        45  -3.24087
         2       172        45  -3.24087
         2       173        49-0.0716636
         2       134        70  -2.25012
         2       138        72  -2.25012
         2       174        49-0.0716636
         2       174        48-0.0716636
         2       174        50-0.0716636
         2       149        64  -2.24344
        22         0 # stress period 13
         2       174        50  -1.06068
         2       171        44  -4.34962
         2       134        70 -0.842133
         2       135        70 -0.842133
         2       172        45  -4.34962
         2       149        64  -3.58489
         2       174        48  -1.06068
         2       171        45  -4.34962
         2       138        69 -0.842133
         2       138        71 -0.842133
         2       136        70 -0.842133
         2       174        49  -1.06068
         2       173        49  -1.06068
         2       138        72 -0.842133
         2       137        70 -0.842133
         2       139        70 -0.842133
         2       150        65  -3.58489
         2       138        70 -0.842133
         2       171        46  -4.34962
         2       175        49  -1.06068
         2       149        65  -3.58489
         2       170        45  -4.34962
        22         0 # stress period 14
         2       171        46  -3.62766
         2       173        49  -4.24399
         2       174        48  -4.24399
         2       138        69  -1.29106
         2       171        44  -3.62766
         2       149        65  -2.94046
         2       138        71  -1.29106
         2       136        70  -1.29106
         2       134        70  -1.29106
         2       138        70  -1.29106
         2       170        45  -3.62766
         2       175        49  -4.24399
         2       135        70  -1.29106
         2       150        65  -2.94046
         2       171        45  -3.62766
         2       137        70  -1.29106
         2       149        64  -2.94046
         2       138        72  -1.29106
         2       172        45  -3.62766
         2       174        49  -4.24399
         2       174        50  -4.24399
         2       139        70  -1.29106
        22         0 # stress period 15
         2       172        45-0.0740685
         2       174        50   -4.3321
         2       138        71  -1.08447
         2       138        70  -1.08447
         2       138        72  -1.08447
         2       138        69  -1.08447
         2       139        70  -1.08447
         2       137        70  -1.08447
         2       173        49   -4.3321
         2       136        70  -1.08447
         2       171        45-0.0740685
         2       175        49   -4.3321
         2       174        48   -4.3321
         2       171        44-0.0740685
         2       149        64   -4.3207
         2       171        46-0.0740685
         2       150        65   -4.3207
         2       135        70  -1.08447
         2       170        45-0.0740685
         2       134        70  -1.08447
         2       149        65   -4.3207
         2       174        49   -4.3321
        22         0 # stress period 16
         2       138        70  -2.04564
         2       171        45  -0.18876
         2       138        69  -2.04564
         2       137        70  -2.04564
         2       139        70  -2.04564
         2       175        49  -4.33569
         2       138        71  -2.04564
         2       149        65  -3.24917
         2       171        44  -0.18876
         2       170        45  -0.18876
         2       135        70  -2.04564
         2       174        48  -4.33569
         2       150        65  -3.24917
         2       138        72  -2.04564
         2       171        46  -0.18876
         2       134        70  -2.04564
         2       174        50  -4.33569
         2       174        49  -4.33569
         2       172        45  -0.18876
         2       136        70  -2.04564
         2       173        49  -4.33569
         2       149        64  -3.24917
        19         0 # stress period 17
         2       173        49   -4.3496
         2       138        72   -2.4964
         2       138        71   -2.4964
         2       171        46 -0.303451
         2       174        48   -4.3496
         2       137        70   -2.4964
         2       139        70   -2.4964
         2       138        70   -2.4964
         2       138        69   -2.4964
         2       172        45 -0.303451
         2       174        49   -4.3496
         2       175        49   -4.3496
         2       136        70   -2.4964
         2       174        50   -4.3496
         2       134        70   -2.4964
         2       171        44 -0.303451
         2       170        45 -0.303451
         2       135        70   -2.4964
         2       171        45 -0.303451
        19         0 # stress period 18
         2       138        69  -2.52427
         2       134        70  -2.52427
         2       174        50  -4.38332
         2       171        46 -0.418142
         2       174        49  -4.38332
         2       138        72  -2.52427
         2       173        49  -4.38332
         2       136        70  -2.52427
         2       172        45 -0.418142
         2       135        70  -2.52427
         2       171        44 -0.418142
         2       170        45 -0.418142
         2       174        48  -4.38332
         2       137        70  -2.52427
         2       139        70  -2.52427
         2       138        71  -2.52427
         2       175        49  -4.38332
         2       171        45 -0.418142
         2       138        70  -2.52427
        22         0 # stress period 19
         2       139        70  -2.50215
         2       136        70  -2.50215
         2       173        49  -4.25295
         2       138        69  -2.50215
         2       138        72  -2.50215
         2       172        45  -3.90274
         2       174        49  -4.25295
         2       149        65-0.0557699
         2       137        70  -2.50215
         2       170        45  -3.90274
         2       171        45  -3.90274
         2       175        49  -4.25295
         2       174        48  -4.25295
         2       135        70  -2.50215
         2       171        46  -3.90274
         2       150        65-0.0557699
         2       138        70  -2.50215
         2       171        44  -3.90274
         2       149        64-0.0557699
         2       134        70  -2.50215
         2       138        71  -2.50215
         2       174        50  -4.25295
        22         0 # stress period 20
         2       171        44  -4.32046
         2       135        70  -2.26348
         2       172        45  -4.32046
         2       149        65 -0.311727
         2       137        70  -2.26348
         2       174        48  -2.43047
         2       139        70  -2.26348
         2       138        70  -2.26348
         2       150        65 -0.311727
         2       171        46  -4.32046
         2       138        71  -2.26348
         2       138        69  -2.26348
         2       174        50  -2.43047
         2       173        49  -2.43047
         2       149        64 -0.311727
         2       170        45  -4.32046
         2       138        72  -2.26348
         2       134        70  -2.26348
         2       171        45  -4.32046
         2       174        49  -2.43047
         2       136        70  -2.26348
         2       175        49  -2.43047
        17         0 # stress period 21
         2       139        70-0.0120104
         2       174        48  -4.39063
         2       174        49  -4.39063
         2       136        70-0.0120104
         2       138        70-0.0120104
         2       149        64  -5.81681
         2       138        71-0.0120104
         2       135        70-0.0120104
         2       134        70-0.0120104
         2       175        49  -4.39063
         2       150        65  -5.81681
         2       137        70-0.0120104
         2       149        65  -5.81681
         2       138        69-0.0120104
         2       138        72-0.0120104
         2       173        49  -4.39063
         2       174        50  -4.39063
        22         0 # stress period 22
         2       137        70 -0.532418
         2       138        71 -0.532418
         2       171        44 -0.737879
         2       138        72 -0.532418
         2       149        65 -0.785344
         2       135        70 -0.532418
         2       138        69 -0.532418
         2       172        45 -0.737879
         2       171        45 -0.737879
         2       134        70 -0.532418
         2       170        45 -0.737879
         2       174        50  -1.60059
         2       149        64 -0.785344
         2       136        70 -0.532418
         2       175        49  -1.60059
         2       173        49  -1.60059
         2       138        70 -0.532418
         2       139        70 -0.532418
         2       171        46 -0.737879
         2       174        49  -1.60059
         2       174        48  -1.60059
         2       150        65 -0.785344
        22         0 # stress period 23
         2       171        44  -4.00557
         2       174        50  -3.66372
         2       138        72  -1.49825
         2       149        64  -2.82939
         2       174        48  -3.66372
         2       150        65  -2.82939
         2       172        45  -4.00557
         2       138        69  -1.49825
         2       136        70  -1.49825
         2       138        70  -1.49825
         2       171        45  -4.00557
         2       170        45  -4.00557
         2       149        65  -2.82939
         2       173        49  -3.66372
         2       134        70  -1.49825
         2       138        71  -1.49825
         2       171        46  -4.00557
         2       139        70  -1.49825
         2       174        49  -3.66372
         2       137        70  -1.49825
         2       175        49  -3.66372
         2       135        70  -1.49825
        22         0 # stress period 24
         2       171        46  -4.28853
         2       149        64  -5.29616
         2       172        45  -4.28853
         2       137        70 -0.517662
         2       138        70 -0.517662
         2       171        45  -4.28853
         2       170        45  -4.28853
         2       134        70 -0.517662
         2       173        49   -3.9462
         2       175        49   -3.9462
         2       171        44  -4.28853
         2       136        70 -0.517662
         2       138        69 -0.517662
         2       138        72 -0.517662
         2       150        65  -5.29616
         2       174        49   -3.9462
         2       135        70 -0.517662
         2       174        48   -3.9462
         2       138        71 -0.517662
         2       139        70 -0.517662
         2       174        50   -3.9462
         2       149        65  -5.29616
        13         0 # stress period 25
         2       174        50 -0.132398
         2       149        64  -5.83223
         2       149        65  -5.83223
         2       171        46  -4.39399
         2       170        45  -4.39399
         2       174        49 -0.132398
         2       171        44  -4.39399
         2       150        65  -5.83223
         2       174        48 -0.132398
         2       173        49 -0.132398
         2       172        45  -4.39399
         2       175        49 -0.132398
         2       171        45  -4.39399
        13         0 # stress period 26
         2       174        49  -3.18536
         2       171        46  -4.31509
         2       175        49  -3.18536
         2       173        49  -3.18536
         2       174        48  -3.18536
         2       149        64  -5.77869
         2       171        44  -4.31509
         2       150        65  -5.77869
         2       174        50  -3.18536
         2       149        65  -5.77869
         2       170        45  -4.31509
         2       171        45  -4.31509
         2       172        45  -4.31509
        13         0 # stress period 27
         2       175        49 -0.702354
         2       173        49 -0.702354
         2       150        65  -5.77141
         2       174        50 -0.702354
         2       172        45  -4.41705
         2       171        44  -4.41705
         2       171        45  -4.41705
         2       149        64  -5.77141
         2       174        48 -0.702354
         2       149        65  -5.77141
         2       171        46  -4.41705
         2       170        45  -4.41705
         2       174        49 -0.702354
         8         0 # stress period 28
         2       170        45  -4.41518
         2       150        65  -5.77911
         2       172        45  -4.41518
         2       171        46  -4.41518
         2       149        65  -5.77911
         2       149        64  -5.77911
         2       171        45  -4.41518
         2       171        44  -4.41518
        13         0 # stress period 29
         2       174        48-0.00020072
         2       170        45  -4.44465
         2       171        45  -4.44465
         2       149        64  -5.79809
         2       172        45  -4.44465
         2       173        49-0.00020072
         2       171        44  -4.44465
         2       149        65  -5.79809
         2       175        49-0.00020072
         2       174        49-0.00020072
         2       150        65  -5.79809
         2       174        50-0.00020072
         2       171        46  -4.44465
        13         0 # stress period 30
         2       149        65  -5.77389
         2       175        49 -0.050643
         2       172        45  -5.05141
         2       149        64  -5.77389
         2       171        46  -5.05141
         2       171        45  -5.05141
         2       174        50 -0.050643
         2       174        49 -0.050643
         2       170        45  -5.05141
         2       150        65  -5.77389
         2       173        49 -0.050643
         2       171        44  -5.05141
         2       174        48 -0.050643
        13         0 # stress period 31
         2       172        45  -6.17746
         2       173        49 -0.139954
         2       171        45  -6.17746
         2       170        45  -6.17746
         2       149        64  -5.79155
         2       174        49 -0.139954
         2       150        65  -5.79155
         2       171        46  -6.17746
         2       174        50 -0.139954
         2       174        48 -0.139954
         2       171        44  -6.17746
         2       149        65  -5.79155
         2       175        49 -0.139954
        13         0 # stress period 32
         2       172        45   -4.9848
         2       173        49  -2.99835
         2       170        45   -4.9848
         2       171        44   -4.9848
         2       174        50  -2.99835
         2       171        46   -4.9848
         2       171        45   -4.9848
         2       150        65   -5.7899
         2       149        64   -5.7899
         2       175        49  -2.99835
         2       174        48  -2.99835
         2       174        49  -2.99835
         2       149        65   -5.7899
        13         0 # stress period 33
         2       171        46  -6.02284
         2       171        44  -6.02284
         2       150        65  -5.23998
         2       174        49  -4.27021
         2       149        64  -5.23998
         2       149        65  -5.23998
         2       175        49  -4.27021
         2       170        45  -6.02284
         2       171        45  -6.02284
         2       174        50  -4.27021
         2       172        45  -6.02284
         2       173        49  -4.27021
         2       174        48  -4.27021
        13         0 # stress period 34
         2       175        49 -0.208753
         2       170        45  -6.49016
         2       150        65  -5.39066
         2       174        49 -0.208753
         2       174        50 -0.208753
         2       171        46  -6.49016
         2       171        45  -6.49016
         2       174        48 -0.208753
         2       149        64  -5.39066
         2       171        44  -6.49016
         2       149        65  -5.39066
         2       173        49 -0.208753
         2       172        45  -6.49016
        13         0 # stress period 35
         2       174        49  -1.06839
         2       170        45  -4.30452
         2       171        45  -4.30452
         2       174        48  -1.06839
         2       172        45  -4.30452
         2       173        49  -1.06839
         2       174        50  -1.06839
         2       171        46  -4.30452
         2       171        44  -4.30452
         2       175        49  -1.06839
         2       149        64  -5.76804
         2       150        65  -5.76804
         2       149        65  -5.76804
        22         0 # stress period 36
         2       138        71-0.00890335
         2       149        65  -3.63096
         2       174        49  -2.39456
         2       137        70-0.00890335
         2       139        70-0.00890335
         2       138        72-0.00890335
         2       149        64  -3.63096
         2       138        70-0.00890335
         2       136        70-0.00890335
         2       150        65  -3.63096
         2       134        70-0.00890335
         2       171        45 -0.784718
         2       171        44 -0.784718
         2       171        46 -0.784718
         2       174        50  -2.39456
         2       174        48  -2.39456
         2       172        45 -0.784718
         2       135        70-0.00890335
         2       170        45 -0.784718
         2       138        69-0.00890335
         2       175        49  -2.39456
         2       173        49  -2.39456
        22         0 # stress period 37
         2       139        70-0.0624064
         2       174        48  -4.35882
         2       171        44  -3.16553
         2       171        46  -3.16553
         2       175        49  -4.35882
         2       149        65  -2.84797
         2       174        49  -4.35882
         2       137        70-0.0624064
         2       134        70-0.0624064
         2       138        71-0.0624064
         2       138        69-0.0624064
         2       174        50  -4.35882
         2       150        65  -2.84797
         2       138        70-0.0624064
         2       149        64  -2.84797
         2       138        72-0.0624064
         2       135        70-0.0624064
         2       172        45  -3.16553
         2       171        45  -3.16553
         2       173        49  -4.35882
         2       170        45  -3.16553
         2       136        70-0.0624064
        22         0 # stress period 38
         2       172        45  -4.47369
         2       139        70 -0.122049
         2       136        70 -0.122049
         2       149        65  -5.60119
         2       135        70 -0.122049
         2       138        72 -0.122049
         2       138        69 -0.122049
         2       170        45  -4.47369
         2       137        70 -0.122049
         2       149        64  -5.60119
         2       174        48  -4.26808
         2       134        70 -0.122049
         2       174        49  -4.26808
         2       171        45  -4.47369
         2       150        65  -5.60119
         2       171        44  -4.47369
         2       173        49  -4.26808
         2       174        50  -4.26808
         2       175        49  -4.26808
         2       138        71 -0.122049
         2       171        46  -4.47369
         2       138        70 -0.122049
        22         0 # stress period 39
         2       135        70 -0.181692
         2       173        49 -0.491539
         2       138        71 -0.181692
         2       171        44  -4.64932
         2       138        69 -0.181692
         2       174        49 -0.491539
         2       171        45  -4.64932
         2       150        65  -4.63004