# WEL package for MODFLOW-NWT generated by Flopy 3.3.5
        30         1 
        25         0 # stress period 1
         2       134        70 -0.694465
         2       139        70 -0.694465
         2       138        69 -0.694465
         2       148        65 -0.197427
         2       138        70 -0.694465
         2       138        71 -0.694465
         2       171        46  -4.53121
         2       173        49 -0.074813
         2       171        44  -4.53121
         2       147        65 -0.197427
         2       135        70 -0.694465
         2       138        72 -0.694465
         2       150        65  -5.75208
         2       174        49 -0.074813
         2       171        45  -4.53121
         2       136        70 -0.694465
         2       174        50 -0.074813
         2       137        70 -0.694465
         2       175        49 -0.074813
         2       149        65  -5.75208
         2       172        45  -4.53121
         2       149        64  -5.75208
         2       174        48 -0.074813
         2       147        64 -0.197427
         2       170        45  -4.53121
        25         0 # stress period 2
         2       137        70 -0.742158
         2       147        65 -0.226704
         2       171        44  -4.54083
         2       135        70 -0.742158
         2       138        72 -0.742158
         2       174        49-0.0782512
         2       172        45  -4.54083
         2       150        65  -5.75979
         2       136        70 -0.742158
         2       171        45  -4.54083
         2       134        70 -0.742158
         2       147        64 -0.226704
         2       175        49-0.0782512
         2       170        45  -4.54083
         2       173        49-0.0782512
         2       139        70 -0.742158
         2       174        50-0.0782512
         2       138        69 -0.742158
         2       148        65 -0.226704
         2       174        48-0.0782512
         2       138        70 -0.742158
         2       149        65  -5.75979
         2       138        71 -0.742158
         2       171        46  -4.54083
         2       149        64  -5.75979
        25         0 # stress period 3
         2       147        64  -3.45423
         2       139        70  -0.78985
         2       149        64  -5.57374
         2       136        70  -0.78985
         2       172        45  -4.49204
         2       137        70  -0.78985
         2       170        45  -4.49204
         2       138        69  -0.78985
         2       173        49-0.0816894
         2       171        46  -4.49204
         2       171        44  -4.49204
         2       147        65  -3.45423
         2       149        65  -5.57374
         2       138        72  -0.78985
         2       174        49-0.0816894
         2       148        65  -3.45423
         2       138        71  -0.78985
         2       138        70  -0.78985
         2       150        65  -5.57374
         2       135        70  -0.78985
         2       134        70  -0.78985
         2       171        45  -4.49204
         2       174        50-0.0816894
         2       174        48-0.0816894
         2       175        49-0.0816894
        25         0 # stress period 4
         2       138        69 -0.837542
         2       174        48-0.0851276
         2       148        65 -0.138904
         2       174        49-0.0851276
         2       137        70 -0.837542
         2       138        72 -0.837542
         2       171        46  -4.49559
         2       139        70 -0.837542
         2       135        70 -0.837542
         2       170        45  -4.49559
         2       147        64 -0.138904
         2       149        64  -5.74343
         2       147        65 -0.138904
         2       171        45  -4.49559
         2       138        71 -0.837542
         2       171        44  -4.49559
         2       136        70 -0.837542
         2       173        49-0.0851276
         2       174        50-0.0851276
         2       172        45  -4.49559
         2       134        70 -0.837542
         2       175        49-0.0851276
         2       149        65  -5.74343
         2       150        65  -5.74343
         2       138        70 -0.837542
        25         0 # stress period 5
         2       174        48-0.0885658
         2       149        64  -5.74856
         2       173        49-0.0885658
         2       135        70 -0.885235
         2       149        65  -5.74856
         2       138        69 -0.885235
         2       137        70 -0.885235
         2       138        71 -0.885235
         2       171        46  -4.52787
         2       170        45  -4.52787
         2       171        45  -4.52787
         2       172        45  -4.52787
         2       136        70 -0.885235
         2       150        65  -5.74856
         2       134        70 -0.885235
         2       138        70 -0.885235
         2       147        65  -0.31581
         2       138        72 -0.885235
         2       148        65  -0.31581
         2       174        50-0.0885658
         2       171        44  -4.52787
         2       174        49-0.0885658
         2       147        64  -0.31581
         2       175        49-0.0885658
         2       139        70 -0.885235
        25         0 # stress period 6
         2       148        65  -4.42566
         2       171        46  -4.47937
         2       139        70 -0.932927
         2       137        70 -0.932927
         2       174        50 -0.092004
         2       138        69 -0.932927
         2       138        71 -0.932927
         2       171        45  -4.47937
         2       172        45  -4.47937
         2       150        65  -4.57332
         2       136        70 -0.932927
         2       138        70 -0.932927
         2       134        70 -0.932927
         2       138        72 -0.932927
         2       149        65  -4.57332
         2       147        64  -4.42566
         2       174        49 -0.092004
         2       171        44  -4.47937
         2       175        49 -0.092004
         2       173        49 -0.092004
         2       174        48 -0.092004
         2       170        45  -4.47937
         2       147        65  -4.42566
         2       149        64  -4.57332
         2       135        70 -0.932927
        25         0 # stress period 7
         2       174        48-0.0954423
         2       170        45  -4.23339
         2       134        70 -0.980619
         2       171        44  -4.23339
         2       147        64  -6.03493
         2       149        65  -2.97046
         2       137        70 -0.980619
         2       171        45  -4.23339
         2       150        65  -2.97046
         2       136        70 -0.980619
         2       138        70 -0.980619
         2       138        72 -0.980619
         2       172        45  -4.23339
         2       174        49-0.0954423
         2       175        49-0.0954423
         2       148        65  -6.03493
         2       149        64  -2.97046
         2       135        70 -0.980619
         2       147        65  -6.03493
         2       173        49-0.0954423
         2       174        50-0.0954423
         2       138        71 -0.980619
         2       138        69 -0.980619
         2       139        70 -0.980619
         2       171        46  -4.23339
        25         0 # stress period 8
         2       174        48-0.0988804
         2       171        45  -4.47318
         2       137        70  -1.02831
         2       148        65  -1.80938
         2       136        70  -1.02831
         2       171        46  -4.47318
         2       171        44  -4.47318
         2       173        49-0.0988804
         2       174        49-0.0988804
         2       175        49-0.0988804
         2       135        70  -1.02831
         2       147        65  -1.80938
         2       147        64  -1.80938
         2       172        45  -4.47318
         2       170        45  -4.47318
         2       149        64  -5.70266
         2       149        65  -5.70266
         2       150        65  -5.70266
         2       138        70  -1.02831
         2       138        72  -1.02831
         2       138        71  -1.02831
         2       174        50-0.0988804
         2       138        69  -1.02831
         2       139        70  -1.02831
         2       134        70  -1.02831
        25         0 # stress period 9
         2       173        49 -0.102319
         2       138        69    -1.076
         2       147        65 -0.181894
         2       139        70    -1.076
         2       136        70    -1.076
         2       138        72    -1.076
         2       174        49 -0.102319
         2       149        64  -5.73034
         2       171        46  -4.53113
         2       171        45  -4.53113
         2       150        65  -5.73034
         2       175        49 -0.102319
         2       138        70    -1.076
         2       135        70    -1.076
         2       138        71    -1.076
         2       174        50 -0.102319
         2       148        65 -0.181894
         2       174        48 -0.102319
         2       134        70    -1.076
         2       171        44  -4.53113
         2       147        64 -0.181894
         2       149        65  -5.73034
         2       137        70    -1.076
         2       172        45  -4.53113
         2       170        45  -4.53113
        25         0 # stress period 10
         2       171        44  -4.52815
         2       171        45  -4.52815
         2       134        70   -1.1237
         2       174        48 -0.105757
         2       173        49 -0.105757
         2       147        64 -0.703471
         2       147        65 -0.703471
         2       138        72   -1.1237
         2       174        50 -0.105757
         2       174        49 -0.105757
         2       149        65  -5.70927
         2       148        65 -0.703471
         2       138        71   -1.1237
         2       136        70   -1.1237
         2       175        49 -0.105757
         2       171        46  -4.52815
         2       135        70   -1.1237
         2       139        70   -1.1237
         2       172        45  -4.52815
         2       138        69   -1.1237
         2       138        70   -1.1237
         2       170        45  -4.52815
         2       150        65  -5.70927
         2       149        64  -5.70927
         2       137        70   -1.1237
        25         0 # stress period 11
         2       138        72  -1.17139
         2       174        49 -0.109195
         2       138        70  -1.17139
         2       174        50 -0.109195
         2       138        71  -1.17139
         2       150        65  -5.56434
         2       135        70  -1.17139
         2       175        49 -0.109195
         2       171        45  -4.39403
         2       170        45  -4.39403
         2       149        64  -5.56434
         2       147        64  -5.87224
         2       172        45  -4.39403
         2       148        65  -5.87224
         2       147        65  -5.87224
         2       174        48 -0.109195
         2       137        70  -1.17139
         2       134        70  -1.17139
         2       173        49 -0.109195
         2       138        69  -1.17139
         2       136        70  -1.17139
         2       171        44  -4.39403
         2       171        46  -4.39403
         2       149        65  -5.56434
         2       139        70  -1.17139
        25         0 # stress period 12
         2       149        65  -5.69588
         2       137        70  -1.21908
         2       171        44  -4.52661
         2       150        65  -5.69588
         2       138        70  -1.21908
         2       138        69  -1.21908
         2       171        46  -4.52661
         2       170        45  -4.52661
         2       135        70  -1.21908
         2       175        49 -0.112633
         2       139        70  -1.21908
         2       148        65  -1.45525
         2       136        70  -1.21908
         2       138        71  -1.21908
         2       171        45  -4.52661
         2       172        45  -4.52661
         2       147        65  -1.45525
         2       173        49 -0.112633
         2       147        64  -1.45525
         2       134        70  -1.21908
         2       138        72  -1.21908
         2       174        49 -0.112633
         2       174        48 -0.112633
         2       174        50 -0.112633
         2       149        64  -5.69588
        25         0 # stress period 13
         2       174        50 -0.116071
         2       171        44  -4.50012
         2       134        70  -1.41259
         2       135        70  -1.41259
         2       148        65  -3.67205
         2       172        45  -4.50012
         2       149        64  -4.83359
         2       174        48 -0.116071
         2       171        45  -4.50012
         2       138        69  -1.41259
         2       138        71  -1.41259
         2       136        70  -1.41259
         2       174        49 -0.116071
         2       173        49 -0.116071
         2       138        72  -1.41259
         2       137        70  -1.41259
         2       147        64  -3.67205
         2       147        65  -3.67205
         2       139        70  -1.41259
         2       150        65  -4.83359
         2       138        70  -1.41259
         2       171        46  -4.50012
         2       175        49 -0.116071
         2       149        65  -4.83359
         2       170        45  -4.50012
        25         0 # stress period 14
         2       148        65-0.0612256
         2       171        46  -4.50195
         2       173        49  -0.11951
         2       174        48  -0.11951
         2       138        69  -2.46944
         2       171        44  -4.50195
         2       149        65-0.0457798
         2       138        71  -2.46944
         2       136        70  -2.46944
         2       134        70  -2.46944
         2       138        70  -2.46944
         2       170        45  -4.50195
         2       175        49  -0.11951
         2       135        70  -2.46944
         2       150        65-0.0457798
         2       171        45  -4.50195
         2       137        70  -2.46944
         2       149        64-0.0457798
         2       138        72  -2.46944
         2       172        45  -4.50195
         2       174        49  -0.11951
         2       147        64-0.0612256
         2       174        50  -0.11951
         2       147        65-0.0612256
         2       139        70  -2.46944
        25         0 # stress period 15
         2       172        45  -4.24507
         2       148        65 -0.161112
         2       174        50 -0.122948
         2       138        71  -2.13445
         2       138        70  -2.13445
         2       138        72  -2.13445
         2       138        69  -2.13445
         2       139        70  -2.13445
         2       147        64 -0.161112
         2       137        70  -2.13445
         2       173        49 -0.122948
         2       147        65 -0.161112
         2       136        70  -2.13445
         2       171        45  -4.24507
         2       175        49 -0.122948
         2       174        48 -0.122948
         2       171        44  -4.24507
         2       149        64 -0.115804
         2       171        46  -4.24507
         2       150        65 -0.115804
         2       135        70  -2.13445
         2       170        45  -4.24507
         2       134        70  -2.13445
         2       149        65 -0.115804
         2       174        49 -0.122948
        25         0 # stress period 16
         2       138        70  -2.42183
         2       171        45  -4.52362
         2       138        69  -2.42183
         2       137        70  -2.42183
         2       139        70  -2.42183
         2       175        49 -0.126386
         2       147        65 -0.260998
         2       138        71  -2.42183
         2       149        65 -0.185829
         2       171        44  -4.52362
         2       170        45  -4.52362
         2       135        70  -2.42183
         2       174        48 -0.126386
         2       150        65 -0.185829
         2       138        72  -2.42183
         2       148        65 -0.260998
         2       147        64 -0.260998
         2       171        46  -4.52362
         2       134        70  -2.42183
         2       174        50 -0.126386
         2       174        49 -0.126386
         2       172        45  -4.52362
         2       136        70  -2.42183
         2       173        49 -0.126386
         2       149        64 -0.185829
        25         0 # stress period 17
         2       148        65  -4.40289
         2       150        65 -0.255854
         2       173        49 -0.129824
         2       138        72  -2.46874
         2       138        71  -2.46874
         2       171        46  -4.43861
         2       174        48 -0.129824
         2       137        70  -2.46874
         2       139        70  -2.46874
         2       138        70  -2.46874
         2       138        69  -2.46874
         2       149        65 -0.255854
         2       147        65  -4.40289
         2       147        64  -4.40289
         2       172        45  -4.43861
         2       149        64 -0.255854
         2       174        49 -0.129824
         2       175        49 -0.129824
         2       136        70  -2.46874
         2       174        50 -0.129824
         2       134        70  -2.46874
         2       171        44  -4.43861
         2       170        45  -4.43861
         2       135        70  -2.46874
         2       171        45  -4.43861
        25         0 # stress period 18
         2       138        69  -2.44117
         2       147        64 -0.233473
         2       134        70  -2.44117
         2       174        50 -0.133262
         2       149        64 -0.325878
         2       171        46  -4.52255
         2       150        65 -0.325878
         2       174        49 -0.133262
         2       148        65 -0.233473
         2       138        72  -2.44117
         2       173        49 -0.133262
         2       136        70  -2.44117
         2       172        45  -4.52255
         2       147        65 -0.233473
         2       135        70  -2.44117
         2       171        44  -4.52255
         2       170        45  -4.52255
         2       149        65 -0.325878
         2       174        48 -0.133262
         2       137        70  -2.44117
         2       139        70  -2.44117
         2       138        71  -2.44117
         2       175        49 -0.133262
         2       171        45  -4.52255
         2       138        70  -2.44117
        25         0 # stress period 19
         2       139        70  -2.45134
         2       136        70  -2.45134
         2       147        64  -5.09515
         2       173        49 -0.136701
         2       138        69  -2.45134
         2       138        72  -2.45134
         2       172        45  -4.39281
         2       174        49 -0.136701
         2       148        65  -5.09515
         2       149        65 -0.395903
         2       137        70  -2.45134
         2       170        45  -4.39281
         2       171        45  -4.39281
         2       175        49 -0.136701
         2       174        48 -0.136701
         2       135        70  -2.45134
         2       171        46  -4.39281
         2       147        65  -5.09515
         2       150        65 -0.395903
         2       138        70  -2.45134
         2       171        44  -4.39281
         2       149        64 -0.395903
         2       134        70  -2.45134
         2       138        71  -2.45134
         2       174        50 -0.136701
        25         0 # stress period 20
         2       171        44  -4.50159
         2       135        70  -2.45318
         2       172        45  -4.50159
         2       148        65  -1.99278
         2       149        65 -0.465927
         2       137        70  -2.45318
         2       174        48 -0.140139
         2       139        70  -2.45318
         2       138        70  -2.45318
         2       150        65 -0.465927
         2       171        46  -4.50159
         2       138        71  -2.45318
         2       138        69  -2.45318
         2       147        64  -1.99278
         2       147        65  -1.99278
         2       174        50 -0.140139
         2       173        49 -0.140139
         2       149        64 -0.465927
         2       170        45  -4.50159
         2       138        72  -2.45318
         2       134        70  -2.45318
         2       171        45  -4.50159
         2       174        49 -0.140139
         2       136        70  -2.45318
         2       175        49 -0.140139
        25         0 # stress period 21
         2       139        70  -2.44627
         2       174        48 -0.143577
         2       174        49 -0.143577
         2       136        70  -2.44627
         2       138        70  -2.44627
         2       149        64 -0.535952
         2       147        65 -0.221013
         2       138        71  -2.44627
         2       147        64 -0.221013
         2       135        70  -2.44627
         2       170        45  -4.50164
         2       134        70  -2.44627
         2       171        44  -4.50164
         2       171        45  -4.50164
         2       172        45  -4.50164
         2       175        49 -0.143577
         2       150        65 -0.535952
         2       137        70  -2.44627
         2       149        65 -0.535952
         2       138        69  -2.44627
         2       138        72  -2.44627
         2       148        65 -0.221013
         2       171        46  -4.50164
         2       173        49 -0.143577
         2       174        50 -0.143577
        25         0 # stress period 22
         2       137        70  -2.00813
         2       138        71  -2.00813
         2       171        44   -4.5429
         2       138        72  -2.00813
         2       149        65 -0.605977
         2       135        70  -2.00813
         2       138        69  -2.00813
         2       172        45   -4.5429
         2       147        65  -1.39668
         2       171        45   -4.5429
         2       147        64  -1.39668
         2       134        70  -2.00813
         2       170        45   -4.5429
         2       174        50 -0.147015
         2       149        64 -0.605977
         2       136        70  -2.00813
         2       148        65  -1.39668
         2       175        49 -0.147015
         2       173        49 -0.147015
         2       138        70  -2.00813
         2       139        70  -2.00813
         2       171        46   -4.5429
         2       174        49 -0.147015
         2       174        48 -0.147015
         2       150        65 -0.605977
        25         0 # stress period 23
         2       171        44  -4.46189
         2       174        50 -0.150453
         2       147        65  -6.07562
         2       138        72  -1.80319
         2       149        64 -0.676001
         2       174        48 -0.150453
         2       148        65  -6.07562
         2       150        65 -0.676001
         2       172        45  -4.46189
         2       138        69  -1.80319
         2       136        70  -1.80319
         2       138        70  -1.80319
         2       171        45  -4.46189
         2       170        45  -4.46189
         2       149        65 -0.676001
         2       173        49 -0.150453
         2       134        70  -1.80319
         2       138        71  -1.80319
         2       171        46  -4.46189
         2       139        70  -1.80319
         2       174        49 -0.150453
         2       137        70  -1.80319
         2       175        49 -0.150453
         2       135        70  -1.80319
         2       147        64  -6.07562
        25         0 # stress period 24
         2       171        46  -4.50507
         2       149        64 -0.746026
         2       172        45  -4.50507
         2       147        65  -6.08043
         2       137        70  -0.41644
         2       138        70  -0.41644
         2       171        45  -4.50507
         2       170        45  -4.50507
         2       147        64  -6.08043
         2       134        70  -0.41644
         2       173        49 -0.153892
         2       175        49 -0.153892
         2       171        44  -4.50507
         2       136        70  -0.41644
         2       138        69  -0.41644
         2       138        72  -0.41644
         2       150        65 -0.746026
         2       174        49 -0.153892
         2       135        70  -0.41644
         2       174        48 -0.153892
         2       138        71  -0.41644
         2       139        70  -0.41644
         2       174        50 -0.153892
         2       149        65 -0.746026
         2       148        65  -6.08043
        25         0 # stress period 25
         2       136        70 -0.147542
         2       138        69 -0.147542
         2       174        50  -0.15733
         2       147        65  -5.67032
         2       149        64 -0.816051
         2       149        65 -0.816051
         2       171        46  -4.50193
         2       170        45  -4.50193
         2       139        70 -0.147542
         2       147        64  -5.67032
         2       148        65  -5.67032
         2       135        70 -0.147542
         2       174        49  -0.15733
         2       171        44  -4.50193
         2       150        65 -0.816051
         2       138        72 -0.147542
         2       174        48  -0.15733
         2       138        70 -0.147542
         2       173        49  -0.15733
         2       137        70 -0.147542
         2       138        71 -0.147542
         2       172        45  -4.50193
         2       175        49  -0.15733
         2       134        70 -0.147542
         2       171        45  -4.50193
        25         0 # stress period 26
         2       137        70  -2.36257
         2       174        49 -0.160768
         2       147        64  -5.00535
         2       171        46  -4.47645
         2       147        65  -5.00535
         2       175        49 -0.160768
         2       173        49 -0.160768
         2       174        48 -0.160768
         2       136        70  -2.36257
         2       149        64 -0.886075
         2       134        70  -2.36257
         2       171        44  -4.47645
         2       138        71  -2.36257
         2       138        70  -2.36257
         2       150        65 -0.886075
         2       174        50 -0.160768
         2       138        72  -2.36257
         2       138        69  -2.36257
         2       149        65 -0.886075
         2       139        70  -2.36257
         2       148        65  -5.00535
         2       170        45  -4.47645
         2       171        45  -4.47645
         2       135        70  -2.36257
         2       172        45  -4.47645
        25         0 # stress period 27
         2       175        49 -0.164206
         2       173        49 -0.164206
         2       138        71  -2.45266
         2       150        65   -0.9561
         2       136        70  -2.45266
         2       147        64  -2.50673
         2       174        50 -0.164206
         2       172        45  -4.47892
         2       171        44  -4.47892
         2       171        45  -4.47892
         2       148        65  -2.50673
         2       138        70  -2.45266
         2       135        70  -2.45266
         2       149        64   -0.9561
         2       139        70  -2.45266
         2       147        65  -2.50673
         2       174        48 -0.164206
         2       138        72  -2.45266
         2       149        65   -0.9561
         2       171        46  -4.47892
         2       134        70  -2.45266
         2       138        69  -2.45266
         2       137        70  -2.45266
         2       170        45  -4.47892
         2       174        49 -0.164206
        25         0 # stress period 28
         2       170        45  -4.54823
         2       138        71   -2.4388
         2       138        70   -2.4388
         2       134        70   -2.4388
         2       150        65  -1.02612
         2       172        45  -4.54823
         2       139        70   -2.4388
         2       171        46  -4.54823
         2       149        65  -1.02612
         2       138        69   -2.4388
         2       174        49 -0.167644
         2       138        72   -2.4388
         2       147        64 -0.437987
         2       174        50 -0.167644
         2       173        49 -0.167644
         2       175        49 -0.167644
         2       137        70   -2.4388
         2       147        65 -0.437987
         2       149        64  -1.02612
         2       148        65 -0.437987
         2       135        70   -2.4388
         2       171        45  -4.54823
         2       171        44  -4.54823
         2       174        48 -0.167644
         2       136        70   -2.4388
        25         0 # stress period 29
         2       137        70   -2.4445