# WEL package for MODFLOW-NWT generated by Flopy 3.3.5
        25         1 
        25         0 # stress period 1
         2       134        70  -2.40277
         2       136        70  -2.40277
         2       175        49 -0.822048
         2       137        70  -2.40277
         2       138        69  -2.40277
         2       138        70  -2.40277
         2       174        50 -0.822048
         2       138        71  -2.40277
         2       138        72  -2.40277
         2       172        45  -4.07061
         2       174        49 -0.822048
         2       171        44  -4.07061
         2       147        65-0.00129673
         2       171        46  -4.07061
         2       174        48 -0.822048
         2       148        65-0.00129673
         2       149        64  -6.03764
         2       173        49 -0.822048
         2       149        65  -6.03764
         2       171        45  -4.07061
         2       150        65  -6.03764
         2       170        45  -4.07061
         2       147        64-0.00129673
         2       135        70  -2.40277
         2       139        70  -2.40277
        25         0 # stress period 2
         2       171        44  -3.81245
         2       138        69  -2.34963
         2       138        72  -2.34963
         2       174        49  -2.02279
         2       147        65 -0.278298
         2       174        50  -2.02279
         2       138        70  -2.34963
         2       139        70  -2.34963
         2       171        45  -3.81245
         2       136        70  -2.34963
         2       172        45  -3.81245
         2       170        45  -3.81245
         2       138        71  -2.34963
         2       149        64  -6.05949
         2       171        46  -3.81245
         2       150        65  -6.05949
         2       135        70  -2.34963
         2       137        70  -2.34963
         2       175        49  -2.02279
         2       149        65  -6.05949
         2       147        64 -0.278298
         2       148        65 -0.278298
         2       174        48  -2.02279
         2       173        49  -2.02279
         2       134        70  -2.34963
        25         0 # stress period 3
         2       138        72  -2.41767
         2       139        70  -2.41767
         2       149        65  -5.90724
         2       147        64 -0.454102
         2       135        70  -2.41767
         2       171        46 -0.690086
         2       172        45 -0.690086
         2       173        49  -4.39245
         2       150        65  -5.90724
         2       175        49  -4.39245
         2       174        49  -4.39245
         2       171        45 -0.690086
         2       147        65 -0.454102
         2       137        70  -2.41767
         2       149        64  -5.90724
         2       174        50  -4.39245
         2       138        70  -2.41767
         2       138        69  -2.41767
         2       136        70  -2.41767
         2       174        48  -4.39245
         2       170        45 -0.690086
         2       171        44 -0.690086
         2       138        71  -2.41767
         2       134        70  -2.41767
         2       148        65 -0.454102
        25         0 # stress period 4
         2       139        70  -3.37602
         2       171        44  -2.56518
         2       135        70  -3.37602
         2       138        69  -3.37602
         2       174        48  -4.26058
         2       148        65 -0.308103
         2       137        70  -3.37602
         2       149        65   -5.8912
         2       173        49  -4.26058
         2       175        49  -4.26058
         2       147        64 -0.308103
         2       138        71  -3.37602
         2       171        46  -2.56518
         2       172        45  -2.56518
         2       150        65   -5.8912
         2       174        50  -4.26058
         2       134        70  -3.37602
         2       149        64   -5.8912
         2       136        70  -3.37602
         2       170        45  -2.56518
         2       138        70  -3.37602
         2       171        45  -2.56518
         2       138        72  -3.37602
         2       147        65 -0.308103
         2       174        49  -4.26058
        25         0 # stress period 5
         2       149        64  -5.71111
         2       147        64  -1.06472
         2       175        49  -4.33364
         2       147        65  -1.06472
         2       173        49  -4.33364
         2       174        48  -4.33364
         2       171        46-0.0421137
         2       136        70  -3.04526
         2       135        70  -3.04526
         2       172        45-0.0421137
         2       138        72  -3.04526
         2       134        70  -3.04526
         2       171        45-0.0421137
         2       138        71  -3.04526
         2       174        49  -4.33364
         2       170        45-0.0421137
         2       139        70  -3.04526
         2       150        65  -5.71111
         2       138        70  -3.04526
         2       174        50  -4.33364
         2       149        65  -5.71111
         2       148        65  -1.06472
         2       171        44-0.0421137
         2       138        69  -3.04526
         2       137        70  -3.04526
        25         0 # stress period 6
         2       170        45 -0.115333
         2       138        69  -2.39323
         2       174        50  -4.31391
         2       136        70  -2.39323
         2       138        70  -2.39323
         2       171        44 -0.115333
         2       138        71  -2.39323
         2       138        72  -2.39323
         2       172        45 -0.115333
         2       149        64  -5.89694
         2       171        45 -0.115333
         2       147        64  -5.40084
         2       171        46 -0.115333
         2       134        70  -2.39323
         2       137        70  -2.39323
         2       175        49  -4.31391
         2       139        70  -2.39323
         2       135        70  -2.39323
         2       173        49  -4.31391
         2       150        65  -5.89694
         2       149        65  -5.89694
         2       174        48  -4.31391
         2       148        65  -5.40084
         2       147        65  -5.40084
         2       174        49  -4.31391
        25         0 # stress period 7
         2       147        64  -5.33358
         2       171        46 -0.188552
         2       139        70  -2.33574
         2       174        50  -4.29885
         2       138        69  -2.33574
         2       172        45 -0.188552
         2       174        49  -4.29885
         2       147        65  -5.33358
         2       138        71  -2.33574
         2       175        49  -4.29885
         2       136        70  -2.33574
         2       138        70  -2.33574
         2       174        48  -4.29885
         2       138        72  -2.33574
         2       137        70  -2.33574
         2       149        65  -5.83134
         2       173        49  -4.29885
         2       134        70  -2.33574
         2       171        45 -0.188552
         2       148        65  -5.33358
         2       135        70  -2.33574
         2       150        65  -5.83134
         2       149        64  -5.83134
         2       171        44 -0.188552
         2       170        45 -0.188552
        25         0 # stress period 8
         2       138        70  -2.53068
         2       171        46  -0.37778
         2       147        65  -5.03057
         2       174        48  -4.22155
         2       173        49  -4.22155
         2       175        49  -4.22155
         2       171        44  -0.37778
         2       147        64  -5.03057
         2       171        45  -0.37778
         2       174        50  -4.22155
         2       135        70  -2.53068
         2       138        69  -2.53068
         2       149        64  -5.71636
         2       149        65  -5.71636
         2       174        49  -4.22155
         2       170        45  -0.37778
         2       150        65  -5.71636
         2       172        45  -0.37778
         2       138        72  -2.53068
         2       138        71  -2.53068
         2       139        70  -2.53068
         2       148        65  -5.03057
         2       137        70  -2.53068
         2       136        70  -2.53068
         2       134        70  -2.53068
        25         0 # stress period 9
         2       173        49  -5.65534
         2       174        50  -5.65534
         2       134        70  -2.54024
         2       135        70  -2.54024
         2       170        45  -1.73715
         2       139        70  -2.54024
         2       175        49  -5.65534
         2       138        69  -2.54024
         2       171        45  -1.73715
         2       147        64 -0.406191
         2       172        45  -1.73715
         2       174        48  -5.65534
         2       136        70  -2.54024
         2       138        70  -2.54024
         2       147        65 -0.406191
         2       148        65 -0.406191
         2       171        44  -1.73715
         2       149        64  -1.95524
         2       150        65  -1.95524
         2       137        70  -2.54024
         2       174        49  -5.65534
         2       171        46  -1.73715
         2       149        65  -1.95524
         2       138        72  -2.54024
         2       138        71  -2.54024
        25         0 # stress period 10
         2       138        70  -3.34683
         2       147        64 -0.273801
         2       137        70  -3.34683
         2       150        65  -4.31907
         2       175        49  -4.37528
         2       138        71  -3.34683
         2       136        70  -3.34683
         2       138        72  -3.34683
         2       149        65  -4.31907
         2       174        49  -4.37528
         2       171        45  -4.10215
         2       139        70  -3.34683
         2       134        70  -3.34683
         2       135        70  -3.34683
         2       172        45  -4.10215
         2       173        49  -4.37528
         2       147        65 -0.273801
         2       174        48  -4.37528
         2       174        50  -4.37528
         2       171        46  -4.10215
         2       171        44  -4.10215
         2       138        69  -3.34683
         2       149        64  -4.31907
         2       148        65 -0.273801
         2       170        45  -4.10215
        25         0 # stress period 11
         2       137        70  -3.52114
         2       171        44  -4.06252
         2       174        50  -4.35699
         2       139        70  -3.52114
         2       138        69  -3.52114
         2       147        65 -0.428245
         2       148        65 -0.428245
         2       149        65 -0.285237
         2       134        70  -3.52114
         2       138        72  -3.52114
         2       171        46  -4.06252
         2       174        49  -4.35699
         2       149        64 -0.285237
         2       172        45  -4.06252
         2       150        65 -0.285237
         2       138        71  -3.52114
         2       174        48  -4.35699
         2       135        70  -3.52114
         2       138        70  -3.52114
         2       147        64 -0.428245
         2       170        45  -4.06252
         2       173        49  -4.35699
         2       171        45  -4.06252
         2       136        70  -3.52114
         2       175        49  -4.35699
        25         0 # stress period 12
         2       136        70  -3.51066
         2       147        64 -0.788036
         2       149        65 -0.734619
         2       175        49  -4.28766
         2       172        45  -3.99134
         2       173        49  -4.28766
         2       138        70  -3.51066
         2       174        48  -4.28766
         2       149        64 -0.734619
         2       174        49  -4.28766
         2       138        71  -3.51066
         2       134        70  -3.51066
         2       147        65 -0.788036
         2       171        44  -3.99134
         2       139        70  -3.51066
         2       148        65 -0.788036
         2       150        65 -0.734619
         2       138        69  -3.51066
         2       170        45  -3.99134
         2       171        46  -3.99134
         2       135        70  -3.51066
         2       174        50  -4.28766
         2       171        45  -3.99134
         2       137        70  -3.51066
         2       138        72  -3.51066
        25         0 # stress period 13
         2       172        45  -3.98068
         2       138        70  -2.31258
         2       150        65    -1.184
         2       138        71  -2.31258
         2       138        69  -2.31258
         2       170        45  -3.98068
         2       171        44  -3.98068
         2       138        72  -2.31258
         2       174        50  -4.30203
         2       147        65  -1.14783
         2       147        64  -1.14783
         2       134        70  -2.31258
         2       135        70  -2.31258
         2       139        70  -2.31258
         2       149        64    -1.184
         2       173        49  -4.30203
         2       171        45  -3.98068
         2       137        70  -2.31258
         2       175        49  -4.30203
         2       149        65    -1.184
         2       174        48  -4.30203
         2       136        70  -2.31258
         2       174        49  -4.30203
         2       148        65  -1.14783
         2       171        46  -3.98068
        25         0 # stress period 14
         2       175        49  -4.41184
         2       147        64  -1.50762
         2       138        70  -2.43519
         2       171        44  -1.38698
         2       173        49  -4.41184
         2       139        70  -2.43519
         2       135        70  -2.43519
         2       170        45  -1.38698
         2       171        46  -1.38698
         2       171        45  -1.38698
         2       134        70  -2.43519
         2       174        48  -4.41184
         2       137        70  -2.43519
         2       172        45  -1.38698
         2       138        72  -2.43519
         2       174        49  -4.41184
         2       150        65  -2.65397
         2       174        50  -4.41184
         2       149        65  -2.65397
         2       136        70  -2.43519
         2       138        69  -2.43519
         2       149        64  -2.65397
         2       138        71  -2.43519
         2       148        65  -1.50762
         2       147        65  -1.50762
        25         0 # stress period 15
         2       170        45 -0.726304
         2       138        69  -2.15307
         2       147        65  -3.98651
         2       171        44 -0.726304
         2       149        64  -5.92477
         2       174        50  -4.35528
         2       136        70  -2.15307
         2       173        49  -4.35528
         2       149        65  -5.92477
         2       135        70  -2.15307
         2       138        71  -2.15307
         2       174        48  -4.35528
         2       148        65  -3.98651
         2       137        70  -2.15307
         2       139        70  -2.15307
         2       134        70  -2.15307
         2       138        72  -2.15307
         2       150        65  -5.92477
         2       138        70  -2.15307
         2       175        49  -4.35528
         2       147        64  -3.98651
         2       172        45 -0.726304
         2       174        49  -4.35528
         2       171        46 -0.726304
         2       171        45 -0.726304
        25         0 # stress period 16
         2       147        65  -4.99046
         2       138        72  -2.36845
         2       149        65   -5.8997
         2       134        70  -2.36845
         2       172        45  -1.30458
         2       174        50  -4.38428
         2       174        48  -4.38428
         2       171        45  -1.30458
         2       138        71  -2.36845
         2       149        64   -5.8997
         2       148        65  -4.99046
         2       173        49  -4.38428
         2       138        70  -2.36845
         2       171        44  -1.30458
         2       147        64  -4.99046
         2       170        45  -1.30458
         2       171        46  -1.30458
         2       150        65   -5.8997
         2       174        49  -4.38428
         2       139        70  -2.36845
         2       175        49  -4.38428
         2       137        70  -2.36845
         2       135        70  -2.36845
         2       136        70  -2.36845
         2       138        69  -2.36845
        25         0 # stress period 17
         2       139        70  -2.24064
         2       147        64 -0.270466
         2       138        69  -2.24064
         2       171        45  -1.88285
         2       149        65  -6.04028
         2       173        49  -4.48805
         2       137        70  -2.24064
         2       135        70  -2.24064
         2       174        50  -4.48805
         2       170        45  -1.88285
         2       138        71  -2.24064
         2       175        49  -4.48805
         2       171        46  -1.88285
         2       171        44  -1.88285
         2       150        65  -6.04028
         2       174        49  -4.48805
         2       174        48  -4.48805
         2       134        70  -2.24064
         2       147        65 -0.270466
         2       172        45  -1.88285
         2       148        65 -0.270466
         2       149        64  -6.04028
         2       136        70  -2.24064
         2       138        70  -2.24064
         2       138        72  -2.24064
        25         0 # stress period 18
         2       150        65  -5.64391
         2       135        70  -2.28576
         2       174        48  -4.34799
         2       174        49  -4.34799
         2       138        70  -2.28576
         2       149        65  -5.64391
         2       138        69  -2.28576
         2       136        70  -2.28576
         2       171        46  -3.93406
         2       148        65  -2.77074
         2       170        45  -3.93406
         2       175        49  -4.34799
         2       147        65  -2.77074
         2       174        50  -4.34799
         2       149        64  -5.64391
         2       171        45  -3.93406
         2       139        70  -2.28576
         2       173        49  -4.34799
         2       147        64  -2.77074
         2       137        70  -2.28576
         2       134        70  -2.28576
         2       138        71  -2.28576
         2       171        44  -3.93406
         2       172        45  -3.93406
         2       138        72  -2.28576
        25         0 # stress period 19
         2       138        70   -1.8557
         2       138        71   -1.8557
         2       171        46  -3.88195
         2       138        72   -1.8557
         2       172        45  -3.88195
         2       147        64  -5.23079
         2       147        65  -5.23079
         2       174        48  -4.25281
         2       174        49  -4.25281
         2       171        44  -3.88195
         2       136        70   -1.8557
         2       150        65  -5.71611
         2       149        65  -5.71611
         2       171        45  -3.88195
         2       139        70   -1.8557
         2       170        45  -3.88195
         2       134        70   -1.8557
         2       137        70   -1.8557
         2       173        49  -4.25281
         2       135        70   -1.8557
         2       149        64  -5.71611
         2       174        50  -4.25281
         2       175        49  -4.25281
         2       148        65  -5.23079
         2       138        69   -1.8557
        25         0 # stress period 20
         2       149        64  -5.56984
         2       174        49  -4.16712
         2       136        70  -1.27792
         2       171        45  -3.77563
         2       149        65  -5.56984
         2       138        72  -1.27792
         2       134        70  -1.27792
         2       138        71  -1.27792
         2       175        49  -4.16712
         2       173        49  -4.16712
         2       135        70  -1.27792
         2       147        65  -5.09494
         2       150        65  -5.56984
         2       138        69  -1.27792
         2       148        65  -5.09494
         2       171        46  -3.77563
         2       174        50  -4.16712
         2       138        70  -1.27792
         2       137        70  -1.27792
         2       170        45  -3.77563
         2       139        70  -1.27792
         2       172        45  -3.77563
         2       171        44  -3.77563
         2       174        48  -4.16712
         2       147        64  -5.09494
        25         0 # stress period 21
         2       134        70  -0.70014
         2       174        49  -4.15598
         2       138        69  -0.70014
         2       175        49  -4.15598
         2       171        44 -0.732323
         2       137        70  -0.70014
         2       135        70  -0.70014
         2       174        50  -4.15598
         2       138        71  -0.70014
         2       147        64  -1.92346
         2       173        49  -4.15598
         2       149        65  -5.87515
         2       171        45 -0.732323
         2       149        64  -5.87515
         2       138        72  -0.70014
         2       170        45 -0.732323
         2       139        70  -0.70014
         2       172        45 -0.732323
         2       148        65  -1.92346
         2       150        65  -5.87515
         2       136        70  -0.70014
         2       147        65  -1.92346
         2       174        48  -4.15598
         2       171        46 -0.732323
         2       138        70  -0.70014
        25         0 # stress period 22
         2       148        65    -4.695
         2       147        64    -4.695
         2       136        70 -0.198776
         2       172        45 -0.292482
         2       171        45 -0.292482
         2       138        71 -0.198776
         2       149        65  -5.90211
         2       138        72 -0.198776
         2       134        70 -0.198776
         2       173        49  -4.10382
         2       170        45 -0.292482
         2       139        70 -0.198776
         2       149        64  -5.90211
         2       147        65    -4.695
         2       138        70 -0.198776
         2       150        65  -5.90211
         2       171        44 -0.292482
         2       171        46 -0.292482
         2       138        69 -0.198776
         2       174        48  -4.10382
         2       137        70 -0.198776
         2       175        49  -4.10382
         2       174        49  -4.10382
         2       174        50  -4.10382
         2       135        70 -0.198776
        25         0 # stress period 23
         2       138        71  -2.93167
         2       149        64  -5.75673
         2       173        49  -2.80233
         2       147        64  -5.26118
         2       150        65  -5.75673
         2       171        44  -1.53702
         2       139        70  -2.93167
         2       174        48  -2.80233
         2       149        65  -5.75673
         2       147        65  -5.26118
         2       134        70  -2.93167
         2       171        46  -1.53702
         2       138        69  -2.93167
         2       137        70  -2.93167
         2       135        70  -2.93167
         2       174        50  -2.80233
         2       138        72  -2.93167
         2       148        65  -5.26118
         2       138        70  -2.93167
         2       136        70  -2.93167
         2       171        45  -1.53702
         2       174        49  -2.80233
         2       170        45  -1.53702
         2       172        45  -1.53702
         2       175        49  -2.80233
        25         0 # stress period 24
         2       174        49  -2.34651
         2       148        65  -4.92637
         2       172        45  -3.41384
         2       149        64  -5.20697
         2       173        49  -2.34651
         2       136        70   -2.0039
         2       150        65  -5.20697
         2       134        70   -2.0039
         2       174        50  -2.34651
         2       138        69   -2.0039
         2       138        70   -2.0039
         2       137        70   -2.0039
         2       170        45  -3.41384
         2       139        70   -2.0039
         2       174        48  -2.34651
         2       171        46  -3.41384
         2       147        65  -4.92637
         2       149        65  -5.20697
         2       135        70   -2.0039
         2       175        49  -2.34651
         2       147        64  -4.92637
         2       171        44  -3.41384
         2       138        72   -2.0039
         2       171        45  -3.41384
         2       138        71   -2.0039
        25         0 # stress period 25
         2       139        70  -2.04576
         2       147        64  -5.08374
         2       171        46  -4.17024
         2       137        70  -2.04576
         2       174        48-0.0444063
         2       174        49-0.0444063
         2       147        65  -5.08374
         2       136        70  -2.04576
         2       175        49-0.0444063
         2       138        72  -2.04576
         2       148        65  -5.08374
         2       149        64  -5.66811
         2       134        70  -2.04576
         2       171        45  -4.17024
         2       138        71  -2.04576
         2       138        69  -2.04576
         2       174        50-0.0444063
         2       135        70  -2.04576
         2       149        65  -5.66811
         2       173        49-0.0444063
         2       150        65  -5.66811
         2       170        45  -4.17024
         2       138        70  -2.04576
         2       171        44  -4.17024
         2       172        45  -4.17024
        25         0 # stress period 26
         2       135        70  -2.30957
         2       138        69  -2.30957
         2       174        50 -0.114957
         2       175        49 -0.114957
         2       171        44  -4.15483
         2       148        65  -0.74212
         2       147        65  -0.74212
         2       138        71  -2.30957
         2       171        45  -4.15483
         2       137        70  -2.30957
         2       138        70  -2.30957
         2       174        48 -0.114957
         2       147        64  -0.74212
         2       174        49 -0.114957
         2       139        70  -2.30957
         2       150        65  -5.79909
         2       134        70  -2.30957
         2       171        46  -4.15483
         2       173        49 -0.114957
         2       136        70  -2.30957
         2       172        45  -4.15483
         2       149        64  -5.79909
         2       138        72  -2.30957
         2       149        65  -5.79909
         2       170        45  -4.15483
        25         0 # stress period 27
         2       150        65   -5.7128
         2       138        70  -2.31667
         2       175        49  -1.98703
         2       137        70  -2.31667
         2       135        70  -2.31667
         2       149        65   -5.7128
         2       136        70  -2.31667
         2       174        48  -1.98703
         2       148        65  -2.90437
         2       172        45  -4.07065
         2       171        44  -4.07065
         2       147        64  -2.90437
         2       134        70  -2.31667
         2       139        70  -2.31667
         2       173        49  -1.98703
         2       170        45  -4.07065
         2       138        72  -2.31667
         2       149        64   -5.7128
         2       174        49  -1.98703
         2       147        65  -2.90437
         2       138        71  -2.31667
         2       138        69  -2.31667
         2       174        50  -1.98703
         2       171        46  -4.07065
         2       171        45  -4.07065
        25         0 # stress period 28
         2       174        48  -3.92259
         2       137        70  -2.33007
         2       171        44  -4.06595
         2       171        46  -4.06595
         2       174        50  -3.92259
         2       170        45  -4.06595
         2       138        70  -2.33007
         2       150        65   -5.6225
         2       138        69  -2.33007
         2       147        64  -2.52906
         2       139        70  -2.33007
         2       147        65  -2.52906
         2       173        49  -3.92259
         2       138        72  -2.33007
         2       149        64   -5.6225
         2       134        70  -2.33007
         2       174        49  -3.92259
         2       135        70  -2.33007
         2       171        45  -4.06595
         2       149        65   -5.6225
         2       136        70  -2.33007
         2       175        49  -3.92259
         2       138        71  -2.33007
         2       172        45  -4.06595
         2       148        65  -2.52906
        25         0 # stress period 29
         2       147        65  -3.48778