# WEL package for MODFLOW-NWT generated by Flopy 3.3.5
        25         1 
        17         0 # stress period 1
         2       134        70      -0.8134432
         2       139        70      -0.8134432
         2       138        69      -0.8134432
         2       138        70      -0.8134432
         2       138        71      -0.8134432
         2       171        46      -4.2863746
         2       171        44      -4.2863746
         2       135        70      -0.8134432
         2       138        72      -0.8134432
         2       150        65      -6.0690928
         2       171        45      -4.2863746
         2       136        70      -0.8134432
         2       137        70      -0.8134432
         2       149        65      -6.0690928
         2       172        45      -4.2863746
         2       149        64      -6.0690928
         2       170        45      -4.2863746
        22         0 # stress period 2
         2       137        70     -0.35398185
         2       171        44      -4.3848324
         2       135        70     -0.35398185
         2       138        72     -0.35398185
         2       174        49     -0.15736145
         2       172        45      -4.3848324
         2       150        65       -1.525142
         2       136        70     -0.35398185
         2       171        45      -4.3848324
         2       134        70     -0.35398185
         2       175        49     -0.15736145
         2       170        45      -4.3848324
         2       173        49     -0.15736145
         2       139        70     -0.35398185
         2       174        50     -0.15736145
         2       138        69     -0.35398185
         2       174        48     -0.15736145
         2       138        70     -0.35398185
         2       149        65       -1.525142
         2       138        71     -0.35398185
         2       171        46      -4.3848324
         2       149        64       -1.525142
        22         0 # stress period 3
         2       139        70      -2.2842464
         2       149        64       -5.062818
         2       136        70      -2.2842464
         2       172        45      -4.3834434
         2       137        70      -2.2842464
         2       170        45      -4.3834434
         2       138        69      -2.2842464
         2       173        49      -0.7714283
         2       171        46      -4.3834434
         2       171        44      -4.3834434
         2       149        65       -5.062818
         2       138        72      -2.2842464
         2       174        49      -0.7714283
         2       138        71      -2.2842464
         2       138        70      -2.2842464
         2       150        65       -5.062818
         2       135        70      -2.2842464
         2       134        70      -2.2842464
         2       171        45      -4.3834434
         2       174        50      -0.7714283
         2       174        48      -0.7714283
         2       175        49      -0.7714283
        19         0 # stress period 4
         2       138        69      -1.7582649
         2       174        48       -2.485281
         2       174        49       -2.485281
         2       137        70      -1.7582649
         2       138        72      -1.7582649
         2       171        46       -4.336981
         2       139        70      -1.7582649
         2       135        70      -1.7582649
         2       170        45       -4.336981
         2       171        45       -4.336981
         2       138        71      -1.7582649
         2       171        44       -4.336981
         2       136        70      -1.7582649
         2       173        49       -2.485281
         2       174        50       -2.485281
         2       172        45       -4.336981
         2       134        70      -1.7582649
         2       175        49       -2.485281
         2       138        70      -1.7582649
        19         0 # stress period 5
         2       174        48      -4.2848563
         2       173        49      -4.2848563
         2       135        70      -2.4748023
         2       138        69      -2.4748023
         2       137        70      -2.4748023
         2       138        71      -2.4748023
         2       171        46       -4.354468
         2       170        45       -4.354468
         2       171        45       -4.354468
         2       172        45       -4.354468
         2       136        70      -2.4748023
         2       134        70      -2.4748023
         2       138        70      -2.4748023
         2       138        72      -2.4748023
         2       174        50      -4.2848563
         2       171        44       -4.354468
         2       174        49      -4.2848563
         2       175        49      -4.2848563
         2       139        70      -2.4748023
        22         0 # stress period 6
         2       171        46      -1.6775283
         2       139        70      -2.1689215
         2       137        70      -2.1689215
         2       174        50      -3.6306007
         2       138        69      -2.1689215
         2       138        71      -2.1689215
         2       171        45      -1.6775283
         2       172        45      -1.6775283
         2       150        65      -3.1548903
         2       136        70      -2.1689215
         2       138        70      -2.1689215
         2       134        70      -2.1689215
         2       138        72      -2.1689215
         2       149        65      -3.1548903
         2       174        49      -3.6306007
         2       171        44      -1.6775283
         2       175        49      -3.6306007
         2       173        49      -3.6306007
         2       174        48      -3.6306007
         2       170        45      -1.6775283
         2       149        64      -3.1548903
         2       135        70      -2.1689215
        22         0 # stress period 7
         2       174        48       -2.120771
         2       170        45      -3.7412298
         2       134        70      -2.4799383
         2       171        44      -3.7412298
         2       149        65     -0.99194396
         2       137        70      -2.4799383
         2       171        45      -3.7412298
         2       150        65     -0.99194396
         2       136        70      -2.4799383
         2       138        70      -2.4799383
         2       138        72      -2.4799383
         2       172        45      -3.7412298
         2       174        49       -2.120771
         2       175        49       -2.120771
         2       149        64     -0.99194396
         2       135        70      -2.4799383
         2       173        49       -2.120771
         2       174        50       -2.120771
         2       138        71      -2.4799383
         2       138        69      -2.4799383
         2       139        70      -2.4799383
         2       171        46      -3.7412298
        19         0 # stress period 8
         2       174        48      -3.4237506
         2       171        45       -3.819156
         2       137        70       -2.495583
         2       136        70       -2.495583
         2       171        46       -3.819156
         2       171        44       -3.819156
         2       173        49      -3.4237506
         2       174        49      -3.4237506
         2       175        49      -3.4237506
         2       135        70       -2.495583
         2       172        45       -3.819156
         2       170        45       -3.819156
         2       138        70       -2.495583
         2       138        72       -2.495583
         2       138        71       -2.495583
         2       174        50      -3.4237506
         2       138        69       -2.495583
         2       139        70       -2.495583
         2       134        70       -2.495583
        14         0 # stress period 9
         2       138        69      -1.9755623
         2       139        70      -1.9755623
         2       136        70      -1.9755623
         2       138        72      -1.9755623
         2       171        46      -4.4467235
         2       171        45      -4.4467235
         2       138        70      -1.9755623
         2       135        70      -1.9755623
         2       138        71      -1.9755623
         2       134        70      -1.9755623
         2       171        44      -4.4467235
         2       137        70      -1.9755623
         2       172        45      -4.4467235
         2       170        45      -4.4467235
        14         0 # stress period 10
         2       171        44      -4.4133153
         2       171        45      -4.4133153
         2       134        70       -1.499225
         2       138        72       -1.499225
         2       138        71       -1.499225
         2       136        70       -1.499225
         2       171        46      -4.4133153
         2       135        70       -1.499225
         2       139        70       -1.499225
         2       172        45      -4.4133153
         2       138        69       -1.499225
         2       138        70       -1.499225
         2       170        45      -4.4133153
         2       137        70       -1.499225
        14         0 # stress period 11
         2       138        72       -0.615821
         2       138        70       -0.615821
         2       138        71       -0.615821
         2       135        70       -0.615821
         2       171        45       -4.410978
         2       170        45       -4.410978
         2       172        45       -4.410978
         2       137        70       -0.615821
         2       134        70       -0.615821
         2       138        69       -0.615821
         2       136        70       -0.615821
         2       171        44       -4.410978
         2       171        46       -4.410978
         2       139        70       -0.615821
        22         0 # stress period 12
         2       149        65       -2.243438
         2       137        70       -2.250121
         2       171        44      -3.2408736
         2       150        65       -2.243438
         2       138        70       -2.250121
         2       138        69       -2.250121
         2       171        46      -3.2408736
         2       170        45      -3.2408736
         2       135        70       -2.250121
         2       175        49     -0.07166361
         2       139        70       -2.250121
         2       136        70       -2.250121
         2       138        71       -2.250121
         2       171        45      -3.2408736
         2       172        45      -3.2408736
         2       173        49     -0.07166361
         2       134        70       -2.250121
         2       138        72       -2.250121
         2       174        49     -0.07166361
         2       174        48     -0.07166361
         2       174        50     -0.07166361
         2       149        64       -2.243438
        22         0 # stress period 13
         2       174        50      -1.0606785
         2       171        44      -4.3496222
         2       134        70     -0.84213287
         2       135        70     -0.84213287
         2       172        45      -4.3496222
         2       149        64      -3.5848925
         2       174        48      -1.0606785
         2       171        45      -4.3496222
         2       138        69     -0.84213287
         2       138        71     -0.84213287
         2       136        70     -0.84213287
         2       174        49      -1.0606785
         2       173        49      -1.0606785
         2       138        72     -0.84213287
         2       137        70     -0.84213287
         2       139        70     -0.84213287
         2       150        65      -3.5848925
         2       138        70     -0.84213287
         2       171        46      -4.3496222
         2       175        49      -1.0606785
         2       149        65      -3.5848925
         2       170        45      -4.3496222
        22         0 # stress period 14
         2       171        46      -3.6276612
         2       173        49       -4.243991
         2       174        48       -4.243991
         2       138        69      -1.2910649
         2       171        44      -3.6276612
         2       149        65      -2.9404597
         2       138        71      -1.2910649
         2       136        70      -1.2910649
         2       134        70      -1.2910649
         2       138        70      -1.2910649
         2       170        45      -3.6276612
         2       175        49       -4.243991
         2       135        70      -1.2910649
         2       150        65      -2.9404597
         2       171        45      -3.6276612
         2       137        70      -1.2910649
         2       149        64      -2.9404597
         2       138        72      -1.2910649
         2       172        45      -3.6276612
         2       174        49       -4.243991
         2       174        50       -4.243991
         2       139        70      -1.2910649
        22         0 # stress period 15
         2       172        45     -0.07406849
         2       174        50      -4.3321037
         2       138        71      -1.0844699
         2       138        70      -1.0844699
         2       138        72      -1.0844699
         2       138        69      -1.0844699
         2       139        70      -1.0844699
         2       137        70      -1.0844699
         2       173        49      -4.3321037
         2       136        70      -1.0844699
         2       171        45     -0.07406849
         2       175        49      -4.3321037
         2       174        48      -4.3321037
         2       171        44     -0.07406849
         2       149        64      -4.3206973
         2       171        46     -0.07406849
         2       150        65      -4.3206973
         2       135        70      -1.0844699
         2       170        45     -0.07406849
         2       134        70      -1.0844699
         2       149        65      -4.3206973
         2       174        49      -4.3321037
        22         0 # stress period 16
         2       138        70      -2.0456357
         2       171        45      -0.1887597
         2       138        69      -2.0456357
         2       137        70      -2.0456357
         2       139        70      -2.0456357
         2       175        49      -4.3356886
         2       138        71      -2.0456357
         2       149        65      -3.2491705
         2       171        44      -0.1887597
         2       170        45      -0.1887597
         2       135        70      -2.0456357
         2       174        48      -4.3356886
         2       150        65      -3.2491705
         2       138        72      -2.0456357
         2       171        46      -0.1887597
         2       134        70      -2.0456357
         2       174        50      -4.3356886
         2       174        49      -4.3356886
         2       172        45      -0.1887597
         2       136        70      -2.0456357
         2       173        49      -4.3356886
         2       149        64      -3.2491705
        19         0 # stress period 17
         2       173        49      -4.3496003
         2       138        72      -2.4963975
         2       138        71      -2.4963975
         2       171        46      -0.3034509
         2       174        48      -4.3496003
         2       137        70      -2.4963975
         2       139        70      -2.4963975
         2       138        70      -2.4963975
         2       138        69      -2.4963975
         2       172        45      -0.3034509
         2       174        49      -4.3496003
         2       175        49      -4.3496003
         2       136        70      -2.4963975
         2       174        50      -4.3496003
         2       134        70      -2.4963975
         2       171        44      -0.3034509
         2       170        45      -0.3034509
         2       135        70      -2.4963975
         2       171        45      -0.3034509
        19         0 # stress period 18
         2       138        69       -2.524271
         2       134        70       -2.524271
         2       174        50      -4.3833203
         2       171        46     -0.41814214
         2       174        49      -4.3833203
         2       138        72       -2.524271
         2       173        49      -4.3833203
         2       136        70       -2.524271
         2       172        45     -0.41814214
         2       135        70       -2.524271
         2       171        44     -0.41814214
         2       170        45     -0.41814214
         2       174        48      -4.3833203
         2       137        70       -2.524271
         2       139        70       -2.524271
         2       138        71       -2.524271
         2       175        49      -4.3833203
         2       171        45     -0.41814214
         2       138        70       -2.524271
        22         0 # stress period 19
         2       139        70      -2.5021465
         2       136        70      -2.5021465
         2       173        49       -4.252952
         2       138        69      -2.5021465
         2       138        72      -2.5021465
         2       172        45      -3.9027424
         2       174        49       -4.252952
         2       149        65    -0.055769864
         2       137        70      -2.5021465
         2       170        45      -3.9027424
         2       171        45      -3.9027424
         2       175        49       -4.252952
         2       174        48       -4.252952
         2       135        70      -2.5021465
         2       171        46      -3.9027424
         2       150        65    -0.055769864
         2       138        70      -2.5021465
         2       171        44      -3.9027424
         2       149        64    -0.055769864
         2       134        70      -2.5021465
         2       138        71      -2.5021465
         2       174        50       -4.252952
        22         0 # stress period 20
         2       171        44        -4.32046
         2       135        70      -2.2634847
         2       172        45        -4.32046
         2       149        65      -0.3117274
         2       137        70      -2.2634847
         2       174        48      -2.4304721
         2       139        70      -2.2634847
         2       138        70      -2.2634847
         2       150        65      -0.3117274
         2       171        46        -4.32046
         2       138        71      -2.2634847
         2       138        69      -2.2634847
         2       174        50      -2.4304721
         2       173        49      -2.4304721
         2       149        64      -0.3117274
         2       170        45        -4.32046
         2       138        72      -2.2634847
         2       134        70      -2.2634847
         2       171        45        -4.32046
         2       174        49      -2.4304721
         2       136        70      -2.2634847
         2       175        49      -2.4304721
        17         0 # stress period 21
         2       139        70    -0.012010366
         2       174        48      -4.3906336
         2       174        49      -4.3906336
         2       136        70    -0.012010366
         2       138        70    -0.012010366
         2       149        64      -5.8168063
         2       138        71    -0.012010366
         2       135        70    -0.012010366
         2       134        70    -0.012010366
         2       175        49      -4.3906336
         2       150        65      -5.8168063
         2       137        70    -0.012010366
         2       149        65      -5.8168063
         2       138        69    -0.012010366
         2       138        72    -0.012010366
         2       173        49      -4.3906336
         2       174        50      -4.3906336
        22         0 # stress period 22
         2       137        70     -0.53241783
         2       138        71     -0.53241783
         2       171        44     -0.73787856
         2       138        72     -0.53241783
         2       149        65      -0.7853444
         2       135        70     -0.53241783
         2       138        69     -0.53241783
         2       172        45     -0.73787856
         2       171        45     -0.73787856
         2       134        70     -0.53241783
         2       170        45     -0.73787856
         2       174        50      -1.6005919
         2       149        64      -0.7853444
         2       136        70     -0.53241783
         2       175        49      -1.6005919
         2       173        49      -1.6005919
         2       138        70     -0.53241783
         2       139        70     -0.53241783
         2       171        46     -0.73787856
         2       174        49      -1.6005919
         2       174        48      -1.6005919
         2       150        65      -0.7853444
        22         0 # stress period 23
         2       171        44      -4.0055733
         2       174        50      -3.6637216
         2       138        72      -1.4982467
         2       149        64      -2.8293912
         2       174        48      -3.6637216
         2       150        65      -2.8293912
         2       172        45      -4.0055733
         2       138        69      -1.4982467
         2       136        70      -1.4982467
         2       138        70      -1.4982467
         2       171        45      -4.0055733
         2       170        45      -4.0055733
         2       149        65      -2.8293912
         2       173        49      -3.6637216
         2       134        70      -1.4982467
         2       138        71      -1.4982467
         2       171        46      -4.0055733
         2       139        70      -1.4982467
         2       174        49      -3.6637216
         2       137        70      -1.4982467
         2       175        49      -3.6637216
         2       135        70      -1.4982467
        22         0 # stress period 24
         2       171        46       -4.288534
         2       149        64       -5.296164
         2       172        45       -4.288534
         2       137        70      -0.5176624
         2       138        70      -0.5176624
         2       171        45       -4.288534
         2       170        45       -4.288534
         2       134        70      -0.5176624
         2       173        49      -3.9461997
         2       175        49      -3.9461997
         2       171        44       -4.288534
         2       136        70      -0.5176624
         2       138        69      -0.5176624
         2       138        72      -0.5176624
         2       150        65       -5.296164
         2       174        49      -3.9461997
         2       135        70      -0.5176624
         2       174        48      -3.9461997
         2       138        71      -0.5176624
         2       139        70      -0.5176624
         2       174        50      -3.9461997
         2       149        65       -5.296164
        13         0 # stress period 25
         2       174        50     -0.13239823
         2       149        64       -5.832229
         2       149        65       -5.832229
         2       171        46      -4.3939877
         2       170        45      -4.3939877
         2       174        49     -0.13239823
         2       171        44      -4.3939877
         2       150        65       -5.832229
         2       174        48     -0.13239823
         2       173        49     -0.13239823
         2       172        45      -4.3939877
         2       175        49     -0.13239823
         2       171        45      -4.3939877
        13         0 # stress period 26
         2       174        49      -3.1853638
         2       171        46      -4.3150916
         2       175        49      -3.1853638
         2       173        49      -3.1853638
         2       174        48      -3.1853638
         2       149        64       -5.778692
         2       171        44      -4.3150916
         2       150        65       -5.778692
         2       174        50      -3.1853638
         2       149        65       -5.778692
         2       170        45      -4.3150916
         2       171        45      -4.3150916
         2       172        45      -4.3150916
        13         0 # stress period 27
         2       175        49     -0.70235425
         2       173        49     -0.70235425
         2       150        65       -5.771411
         2       174        50     -0.70235425
         2       172        45      -4.4170456
         2       171        44      -4.4170456
         2       171        45      -4.4170456
         2       149        64       -5.771411
         2       174        48     -0.70235425
         2       149        65       -5.771411
         2       171        46      -4.4170456
         2       170        45      -4.4170456
         2       174        49     -0.70235425
         8         0 # stress period 28
         2       170        45      -4.4151807
         2       150        65       -5.779114
         2       172        45      -4.4151807
         2       171        46      -4.4151807
         2       149        65       -5.779114
         2       149        64       -5.779114
         2       171        45      -4.4151807
         2       171        44      -4.4151807
        13         0 # stress period 29
         2       174        48  -0.00020072042
         2       170        45      -4.4446507
         2       171        45      -4.4446507
         2       149        64      -5.7980886
         2       172        45      -4.4446507
         2       173        49  -0.00020072042
         2       171        44      -4.4446507
         2       149        65      -5.7980886
         2       175        49  -0.00020072042
         2       174        49  -0.00020072042
         2       150        65      -5.7980886
         2       174        50  -0.00020072042
         2       171        46      -4.4446507
        13         0 # stress period 30
         2       149        65      -5.7738886
         2       175        49     -0.05064301
         2       172        45      -5.0514092
         2       149        64      -5.7738886
         2       171        46      -5.0514092
         2       171        45      -5.0514092
         2       174        50     -0.05064301
         2       174        49     -0.05064301
         2       170        45      -5.0514092
         2       150        65      -5.7738886
         2       173        49     -0.05064301
         2       171        44      -5.0514092
         2       174        48     -0.05064301
        13         0 # stress period 31
         2       172        45       -6.177458
         2       173        49     -0.13995402
         2       171        45       -6.177458
         2       170        45       -6.177458
         2       149        64      -5.7915535
         2       174        49     -0.13995402
         2       150        65      -5.7915535
         2       171        46       -6.177458
         2       174        50     -0.13995402
         2       174        48     -0.13995402
         2       171        44       -6.177458
         2       149        65      -5.7915535
         2       175        49     -0.13995402
        13         0 # stress period 32
         2       172        45      -4.9848013
         2       173        49      -2.9983528
         2       170        45      -4.9848013
         2       171        44      -4.9848013
         2       174        50      -2.9983528
         2       171        46      -4.9848013
         2       171        45      -4.9848013
         2       150        65      -5.7899017
         2       149        64      -5.7899017
         2       175        49      -2.9983528
         2       174        48      -2.9983528
         2       174        49      -2.9983528
         2       149        65      -5.7899017
        13         0 # stress period 33
         2       171        46       -6.022842
         2       171        44       -6.022842
         2       150        65      -5.2399783
         2       174        49       -4.270212
         2       149        64      -5.2399783
         2       149        65      -5.2399783
         2       175        49       -4.270212
         2       170        45       -6.022842
         2       171        45       -6.022842
         2       174        50       -4.270212
         2       172        45       -6.022842
         2       173        49       -4.270212
         2       174        48       -4.270212
        13         0 # stress period 34
         2       175        49     -0.20875347
         2       170        45      -6.4901595
         2       150        65      -5.3906574
         2       174        49     -0.20875347
         2       174        50     -0.20875347
         2       171        46      -6.4901595
         2       171        45      -6.4901595
         2       174        48     -0.20875347
         2       149        64      -5.3906574
         2       171        44      -6.4901595
         2       149        65      -5.3906574
         2       173        49     -0.20875347
         2       172        45      -6.4901595
        13         0 # stress period 35
         2       174        49      -1.0683866
         2       170        45      -4.3045173
         2       171        45      -4.3045173