# WEL package for MODFLOW-NWT generated by Flopy 3.3.6
        30         1 
        25         0 # stress period 1
         2       134        70  -2.42429
         2       147        65 -0.114574
         2       136        70  -2.42429
         2       148        65 -0.114574
         2       149        64-0.0860439
         2       149        65-0.0860439
         2       150        65-0.0860439
         2       135        70  -2.42429
         2       170        45  -4.13194
         2       171        44  -4.13194
         2       171        45  -4.13194
         2       171        46  -4.13194
         2       172        45  -4.13194
         2       147        64 -0.114574
         2       174        48  -3.25255
         2       173        49  -3.25255
         2       138        71  -2.42429
         2       139        70  -2.42429
         2       138        69  -2.42429
         2       174        50  -3.25255
         2       138        72  -2.42429
         2       174        49  -3.25255
         2       138        70  -2.42429
         2       175        49  -3.25255
         2       137        70  -2.42429
        25         0 # stress period 2
         2       170        45  -4.18664
         2       171        44  -4.18664
         2       137        70  -2.37944
         2       171        45  -4.18664
         2       171        46  -4.18664
         2       138        69  -2.37944
         2       172        45  -4.18664
         2       174        50  -3.37793
         2       138        70  -2.37944
         2       139        70  -2.37944
         2       174        48  -3.37793
         2       135        70  -2.37944
         2       150        65 -0.172088
         2       138        71  -2.37944
         2       149        65 -0.172088
         2       175        49  -3.37793
         2       174        49  -3.37793
         2       148        65 -0.229147
         2       173        49  -3.37793
         2       138        72  -2.37944
         2       136        70  -2.37944
         2       147        65 -0.229147
         2       147        64 -0.229147
         2       149        64 -0.172088
         2       134        70  -2.37944
        25         0 # stress period 3
         2       138        71  -2.39862
         2       173        49 -0.893429
         2       138        70  -2.39862
         2       139        70  -2.39862
         2       149        64 -0.556553
         2       148        65 -0.741089
         2       174        50 -0.893429
         2       149        65 -0.556553
         2       136        70  -2.39862
         2       170        45  -4.23303
         2       174        48 -0.893429
         2       147        64 -0.741089
         2       171        44  -4.23303
         2       150        65 -0.556553
         2       137        70  -2.39862
         2       138        72  -2.39862
         2       135        70  -2.39862
         2       172        45  -4.23303
         2       174        49 -0.893429
         2       171        46  -4.23303
         2       134        70  -2.39862
         2       138        69  -2.39862
         2       171        45  -4.23303
         2       147        65 -0.741089
         2       175        49 -0.893429
        25         0 # stress period 4
         2       172        45  -4.26933
         2       170        45  -4.26933
         2       174        50    -1.945
         2       136        70  -2.41833
         2       138        70  -2.41833
         2       135        70  -2.41833
         2       134        70  -2.41833
         2       147        65  -1.30266
         2       147        64  -1.30266
         2       171        46  -4.26933
         2       148        65  -1.30266
         2       138        72  -2.41833
         2       137        70  -2.41833
         2       173        49    -1.945
         2       150        65 -0.978287
         2       174        49    -1.945
         2       139        70  -2.41833
         2       138        69  -2.41833
         2       149        65 -0.978287
         2       171        44  -4.26933
         2       175        49    -1.945
         2       174        48    -1.945
         2       149        64 -0.978287
         2       171        45  -4.26933
         2       138        71  -2.41833
        25         0 # stress period 5
         2       171        45  -4.32702
         2       136        70  -2.33152
         2       147        65  -1.86423
         2       150        65  -1.40002
         2       137        70  -2.33152
         2       149        65  -1.40002
         2       134        70  -2.33152
         2       138        71  -2.33152
         2       175        49  -3.52182
         2       171        44  -4.32702
         2       139        70  -2.33152
         2       148        65  -1.86423
         2       174        49  -3.52182
         2       138        72  -2.33152
         2       174        48  -3.52182
         2       147        64  -1.86423
         2       173        49  -3.52182
         2       170        45  -4.32702
         2       138        69  -2.33152
         2       138        70  -2.33152
         2       149        64  -1.40002
         2       135        70  -2.33152
         2       172        45  -4.32702
         2       174        50  -3.52182
         2       171        46  -4.32702
        25         0 # stress period 6
         2       138        72  -1.81273
         2       138        69  -1.81273
         2       174        49  -3.95996
         2       138        71  -1.81273
         2       135        70  -1.81273
         2       137        70  -1.81273
         2       139        70  -1.81273
         2       171        46  -4.13854
         2       175        49  -3.95996
         2       171        44  -4.13854
         2       174        48  -3.95996
         2       147        64  -2.42579
         2       170        45  -4.13854
         2       147        65  -2.42579
         2       150        65  -1.82175
         2       136        70  -1.81273
         2       138        70  -1.81273
         2       171        45  -4.13854
         2       148        65  -2.42579
         2       173        49  -3.95996
         2       149        64  -1.82175
         2       172        45  -4.13854
         2       149        65  -1.82175
         2       174        50  -3.95996
         2       134        70  -1.81273
        25         0 # stress period 7
         2       137        70  -1.69405
         2       150        65  -2.24349
         2       171        46  -4.40152
         2       148        65  -2.98736
         2       174        49  -1.66989
         2       147        65  -2.98736
         2       173        49  -1.66989
         2       135        70  -1.69405
         2       175        49  -1.66989
         2       149        65  -2.24349
         2       172        45  -4.40152
         2       174        50  -1.66989
         2       174        48  -1.66989
         2       170        45  -4.40152
         2       138        72  -1.69405
         2       138        70  -1.69405
         2       136        70  -1.69405
         2       138        71  -1.69405
         2       171        44  -4.40152
         2       171        45  -4.40152
         2       147        64  -2.98736
         2       149        64  -2.24349
         2       138        69  -1.69405
         2       134        70  -1.69405
         2       139        70  -1.69405
        25         0 # stress period 8
         2       147        65  -3.54893
         2       174        48  -2.12758
         2       171        46  -4.51562
         2       171        44  -4.51562
         2       175        49  -2.12758
         2       147        64  -3.54893
         2       138        70 -0.837473
         2       170        45  -4.51562
         2       134        70 -0.837473
         2       172        45  -4.51562
         2       135        70 -0.837473
         2       174        50  -2.12758
         2       139        70 -0.837473
         2       148        65  -3.54893
         2       174        49  -2.12758
         2       138        72 -0.837473
         2       138        71 -0.837473
         2       137        70 -0.837473
         2       171        45  -4.51562
         2       149        64  -2.66522
         2       150        65  -2.66522
         2       173        49  -2.12758
         2       138        69 -0.837473
         2       149        65  -2.66522
         2       136        70 -0.837473
        25         0 # stress period 9
         2       149        65  -3.66824
         2       147        64  -3.95456
         2       134        70 -0.560085
         2       138        71 -0.560085
         2       138        72 -0.560085
         2       174        50  -2.99795
         2       149        64  -3.66824
         2       138        69 -0.560085
         2       138        70 -0.560085
         2       171        45  -4.48169
         2       170        45  -4.48169
         2       148        65  -3.95456
         2       174        48  -2.99795
         2       139        70 -0.560085
         2       147        65  -3.95456
         2       172        45  -4.48169
         2       137        70 -0.560085
         2       173        49  -2.99795
         2       174        49  -2.99795
         2       171        46  -4.48169
         2       150        65  -3.66824
         2       135        70 -0.560085
         2       136        70 -0.560085
         2       175        49  -2.99795
         2       171        44  -4.48169
        25         0 # stress period 10
         2       171        46  -4.34572
         2       173        49  -5.20328
         2       138        69 -0.604506
         2       148        65  -5.11373
         2       174        48  -5.20328
         2       138        72 -0.604506
         2       170        45  -4.34572
         2       147        64  -5.11373
         2       174        49  -5.20328
         2       149        64   -1.2449
         2       174        50  -5.20328
         2       171        44  -4.34572
         2       139        70 -0.604506
         2       135        70 -0.604506
         2       147        65  -5.11373
         2       138        71 -0.604506
         2       172        45  -4.34572
         2       175        49  -5.20328
         2       134        70 -0.604506
         2       150        65   -1.2449
         2       136        70 -0.604506
         2       138        70 -0.604506
         2       171        45  -4.34572
         2       149        65   -1.2449
         2       137        70 -0.604506
        25         0 # stress period 11
         2       136        70  -1.58843
         2       147        65   -5.4717
         2       149        64     -2.18
         2       170        45    -4.549
         2       171        45    -4.549
         2       139        70  -1.58843
         2       137        70  -1.58843
         2       171        46    -4.549
         2       150        65     -2.18
         2       174        49  -3.91356
         2       148        65   -5.4717
         2       173        49  -3.91356
         2       171        44    -4.549
         2       138        71  -1.58843
         2       138        69  -1.58843
         2       147        64   -5.4717
         2       138        70  -1.58843
         2       149        65     -2.18
         2       135        70  -1.58843
         2       174        50  -3.91356
         2       172        45    -4.549
         2       138        72  -1.58843
         2       174        48  -3.91356
         2       134        70  -1.58843
         2       175        49  -3.91356
        25         0 # stress period 12
         2       171        45   -4.4502
         2       149        65  -5.04423
         2       138        71  -2.29977
         2       150        65  -5.04423
         2       137        70  -2.29977
         2       138        72  -2.29977
         2       148        65  -3.20578
         2       174        49  -5.70491
         2       149        64  -5.04423
         2       138        69  -2.29977
         2       174        48  -5.70491
         2       172        45   -4.4502
         2       134        70  -2.29977
         2       173        49  -5.70491
         2       170        45   -4.4502
         2       175        49  -5.70491
         2       174        50  -5.70491
         2       171        46   -4.4502
         2       138        70  -2.29977
         2       147        64  -3.20578
         2       135        70  -2.29977
         2       139        70  -2.29977
         2       136        70  -2.29977
         2       147        65  -3.20578
         2       171        44   -4.4502
        25         0 # stress period 13
         2       174        48  -7.26692
         2       147        64  -1.13575
         2       173        49  -7.26692
         2       149        65  -3.07359
         2       149        64  -3.07359
         2       148        65  -1.13575
         2       170        45  -4.36548
         2       171        46  -4.36548
         2       147        65  -1.13575
         2       150        65  -3.07359
         2       137        70  -1.63248
         2       135        70  -1.63248
         2       139        70  -1.63248
         2       136        70  -1.63248
         2       172        45  -4.36548
         2       138        69  -1.63248
         2       174        49  -7.26692
         2       138        70  -1.63248
         2       174        50  -7.26692
         2       171        44  -4.36548
         2       171        45  -4.36548
         2       138        72  -1.63248
         2       134        70  -1.63248
         2       138        71  -1.63248
         2       175        49  -7.26692
        22         0 # stress period 14
         2       137        70  -2.24588
         2       138        70  -2.24588
         2       135        70  -2.24588
         2       172        45  -4.45457
         2       134        70  -2.24588
         2       175        49  -3.96312
         2       138        71  -2.24588
         2       139        70  -2.24588
         2       171        44  -4.45457
         2       174        49  -3.96312
         2       171        46  -4.45457
         2       149        65  -4.06464
         2       136        70  -2.24588
         2       149        64  -4.06464
         2       138        69  -2.24588
         2       150        65  -4.06464
         2       171        45  -4.45457
         2       174        48  -3.96312
         2       174        50  -3.96312
         2       173        49  -3.96312
         2       138        72  -2.24588
         2       170        45  -4.45457
        22         0 # stress period 15
         2       138        70  -2.31585
         2       173        49  -3.84009
         2       170        45  -4.30488
         2       174        48  -3.84009
         2       139        70  -2.31585
         2       149        64  -5.68552
         2       174        50  -3.84009
         2       149        65  -5.68552
         2       171        44  -4.30488
         2       136        70  -2.31585
         2       138        69  -2.31585
         2       171        45  -4.30488
         2       137        70  -2.31585
         2       171        46  -4.30488
         2       138        72  -2.31585
         2       135        70  -2.31585
         2       172        45  -4.30488
         2       138        71  -2.31585
         2       174        49  -3.84009
         2       150        65  -5.68552
         2       134        70  -2.31585
         2       175        49  -3.84009
        22         0 # stress period 16
         2       174        50 -0.647335
         2       171        44  -1.02086
         2       170        45  -1.02086
         2       138        69  -2.35843
         2       138        70  -2.35843
         2       174        48 -0.647335
         2       138        71  -2.35843
         2       171        45  -1.02086
         2       149        65  -2.20135
         2       137        70  -2.35843
         2       150        65  -2.20135
         2       172        45  -1.02086
         2       171        46  -1.02086
         2       174        49 -0.647335
         2       173        49 -0.647335
         2       175        49 -0.647335
         2       134        70  -2.35843
         2       138        72  -2.35843
         2       149        64  -2.20135
         2       135        70  -2.35843
         2       136        70  -2.35843
         2       139        70  -2.35843
        22         0 # stress period 17
         2       139        70  -2.25257
         2       171        44 -0.291611
         2       174        48  -4.23598
         2       174        49  -4.23598
         2       138        71  -2.25257
         2       138        70  -2.25257
         2       135        70  -2.25257
         2       149        65   -3.2729
         2       134        70  -2.25257
         2       171        45 -0.291611
         2       138        72  -2.25257
         2       136        70  -2.25257
         2       172        45 -0.291611
         2       138        69  -2.25257
         2       137        70  -2.25257
         2       171        46 -0.291611
         2       173        49  -4.23598
         2       175        49  -4.23598
         2       170        45 -0.291611
         2       149        64   -3.2729
         2       174        50  -4.23598
         2       150        65   -3.2729
        22         0 # stress period 18
         2       150        65  -5.66681
         2       137        70  -2.27439
         2       134        70  -2.27439
         2       138        69  -2.27439
         2       172        45 -0.850427
         2       174        50   -4.1041
         2       174        49   -4.1041
         2       149        65  -5.66681
         2       149        64  -5.66681
         2       171        45 -0.850427
         2       171        46 -0.850427
         2       138        72  -2.27439
         2       135        70  -2.27439
         2       171        44 -0.850427
         2       175        49   -4.1041
         2       136        70  -2.27439
         2       173        49   -4.1041
         2       139        70  -2.27439
         2       138        70  -2.27439
         2       138        71  -2.27439
         2       170        45 -0.850427
         2       174        48   -4.1041
        22         0 # stress period 19
         2       138        71  -2.19613
         2       149        64   -5.7347
         2       171        44  -1.40924
         2       171        45  -1.40924
         2       139        70  -2.19613
         2       136        70  -2.19613
         2       138        72  -2.19613
         2       135        70  -2.19613
         2       138        70  -2.19613
         2       174        49  -2.76085
         2       150        65   -5.7347
         2       171        46  -1.40924
         2       134        70  -2.19613
         2       175        49  -2.76085
         2       170        45  -1.40924
         2       173        49  -2.76085
         2       174        48  -2.76085
         2       172        45  -1.40924
         2       174        50  -2.76085
         2       137        70  -2.19613
         2       149        65   -5.7347
         2       138        69  -2.19613
        17         0 # stress period 20
         2       150        65  -5.55817
         2       149        65  -5.55817
         2       138        69 -0.988534
         2       138        71 -0.988534
         2       137        70 -0.988534
         2       135        70 -0.988534
         2       136        70 -0.988534
         2       171        44  -2.12178
         2       139        70 -0.988534
         2       134        70 -0.988534
         2       138        70 -0.988534
         2       172        45  -2.12178
         2       170        45  -2.12178
         2       149        64  -5.55817
         2       138        72 -0.988534
         2       171        46  -2.12178
         2       171        45  -2.12178
        17         0 # stress period 21
         2       137        70   -1.3761
         2       150        65  -5.91287
         2       170        45  -4.29023
         2       138        71   -1.3761
         2       138        70   -1.3761
         2       138        69   -1.3761
         2       171        46  -4.29023
         2       149        64  -5.91287
         2       136        70   -1.3761
         2       149        65  -5.91287
         2       171        45  -4.29023
         2       138        72   -1.3761
         2       135        70   -1.3761
         2       139        70   -1.3761
         2       171        44  -4.29023
         2       134        70   -1.3761
         2       172        45  -4.29023
        20         0 # stress period 22
         2       171        46  -4.15523
         2       171        45  -4.15523
         2       139        70  -2.36808
         2       138        72  -2.36808
         2       147        65  -2.41124
         2       150        65  -5.81223
         2       138        69  -2.36808
         2       149        64  -5.81223
         2       138        71  -2.36808
         2       171        44  -4.15523
         2       149        65  -5.81223
         2       147        64  -2.41124
         2       138        70  -2.36808
         2       172        45  -4.15523
         2       136        70  -2.36808
         2       170        45  -4.15523
         2       137        70  -2.36808
         2       134        70  -2.36808
         2       135        70  -2.36808
         2       148        65  -2.41124
        20         0 # stress period 23
         2       134        70  -2.24243
         2       138        72  -2.24243
         2       149        65  -5.87379
         2       171        45  -4.18283
         2       136        70  -2.24243
         2       172        45  -4.18283
         2       147        65  -3.72582
         2       138        69  -2.24243
         2       149        64  -5.87379
         2       171        46  -4.18283
         2       138        71  -2.24243
         2       170        45  -4.18283
         2       148        65  -3.72582
         2       137        70  -2.24243
         2       135        70  -2.24243
         2       147        64  -3.72582
         2       138        70  -2.24243
         2       139        70  -2.24243
         2       150        65  -5.87379
         2       171        44  -4.18283
        20         0 # stress period 24
         2       148        65  -1.45402
         2       149        64   -1.0096
         2       150        65   -1.0096
         2       138        71  -2.32602
         2       137        70  -2.32602
         2       149        65   -1.0096
         2       138        70  -2.32602
         2       172        45  -4.33293
         2       171        45  -4.33293
         2       136        70  -2.32602
         2       138        72  -2.32602
         2       139        70  -2.32602
         2       171        46  -4.33293
         2       135        70  -2.32602
         2       138        69  -2.32602
         2       171        44  -4.33293
         2       147        65  -1.45402
         2       134        70  -2.32602
         2       170        45  -4.33293
         2       147        64  -1.45402
        20         0 # stress period 25
         2       171        46  -4.25225
         2       148        65  -3.22045
         2       138        71  -2.34375
         2       147        65  -3.22045
         2       138        69  -2.34375
         2       138        72  -2.34375
         2       147        64  -3.22045
         2       149        65  -4.71122
         2       139        70  -2.34375
         2       150        65  -4.71122
         2       171        45  -4.25225
         2       134        70  -2.34375
         2       149        64  -4.71122
         2       137        70  -2.34375
         2       138        70  -2.34375
         2       171        44  -4.25225
         2       172        45  -4.25225
         2       135        70  -2.34375
         2       170        45  -4.25225
         2       136        70  -2.34375
        20         0 # stress period 26
         2       149        64  -5.90063
         2       149        65  -5.90063
         2       150        65  -5.90063
         2       171        45  -4.12487
         2       138        70  -2.38601
         2       136        70  -2.38601
         2       170        45  -4.12487
         2       147        64  -5.29186
         2       135        70  -2.38601
         2       139        70  -2.38601
         2       138        69  -2.38601
         2       137        70  -2.38601
         2       138        71  -2.38601
         2       147        65  -5.29186
         2       148        65  -5.29186
         2       172        45  -4.12487
         2       171        46  -4.12487
         2       134        70  -2.38601
         2       171        44  -4.12487
         2       138        72  -2.38601
        20         0 # stress period 27
         2       171        46  -4.18139
         2       170        45  -4.18139
         2       147        64  -5.42858
         2       137        70  -2.38601
         2       138        69  -2.38601
         2       149        64  -5.88899
         2       171        44  -4.18139
         2       149        65  -5.88899
         2       172        45  -4.18139
         2       139        70  -2.38601
         2       138        70  -2.38601
         2       135        70  -2.38601
         2       147        65  -5.42858
         2       138        71  -2.38601
         2       171        45  -4.18139
         2       138        72  -2.38601
         2       148        65  -5.42858
         2       136        70  -2.38601
         2       150        65  -5.88899
         2       134        70  -2.38601
        20         0 # stress period 28
         2       149        65  -5.86486
         2       171        44  -4.16175
         2       149        64  -5.86486
         2       138        69  -2.38601
         2       148        65  -4.24331
         2       139        70  -2.38601
         2       138        70  -2.38601
         2       138        71  -2.38601
         2       147        65  -4.24331
         2       172        45  -4.16175
         2       138        72  -2.38601
         2       150        65  -5.86486
         2       147        64  -4.24331
         2       171        46  -4.16175
         2       137        70  -2.38601
         2       135        70  -2.38601
         2       170        45  -4.16175
         2       134        70  -2.38601
         2       136        70  -2.38601
         2       171        45  -4.16175
        20         0 # stress period 29
         2       135        70  -2.38601
         2       138        71  -2.38601
         2       138        70  -2.38601
         2       171        46  -4.23009
         2       138        69  -2.38601
         2       171        44  -4.23009
         2       170        45  -4.23009
         2       171        45  -4.23009
         2       149        64  -6.00436
         2       148        65 -0.891769
         2       172        45  -4.23009
         2       136        70  -2.38601
         2       147        64 -0.891769
         2       147        65 -0.891769
         2       137        70  -2.38601
         2       134        70  -2.38601
         2       150        65  -6.00436
         2       138        72  -2.38601
         2       139        70  -2.38601
         2       149        65  -6.00436
        20         0 # stress period 30
         2       139        70  -2.38601
         2       138        70  -2.38601
         2       149        64  -5.99653
         2       136        70  -2.38601
         2       171        44  -4.16284
         2       150        65  -5.99653
         2       135        70  -2.38601
         2       147        64  -3.16899
         2       171        45  -4.16284
         2       170        45  -4.16284
         2       134        70  -2.38601
         2       149        65  -5.99653
         2       138        69  -2.38601
         2       138        72  -2.38601
         2       172        45  -4.16284
         2       148        65  -3.16899
         2       137        70  -2.38601
         2       138        71  -2.38601
         2       147        65  -3.16899
         2       171        46  -4.16284
        20         0 # stress period 31
         2       171        45  -4.13109
         2       147        64  -5.40074
         2       171        46  -4.13109
         2       137        70  -2.38601
         2       149        64  -5.84331
         2       170        45  -4.13109
         2       136        70  -2.38601
         2       135        70  -2.38601
         2       134        70  -2.38601
         2       138        69  -2.38601
         2       138        71  -2.38601
         2       139        70  -2.38601
         2       148        65  -5.40074
         2       138        72  -2.38601
         2       172        45  -4.13109
         2       150        65  -5.84331
         2       138        70  -2.38601
         2       147        65  -5.40074
         2       149        65  -5.84331
         2       171        44  -4.13109
        25         0 # stress period 32
         2       171        45  -4.12019
         2       174        50-0.00248915
         2       173        49-0.00248915
         2       149        64  -5.84926
         2       139        70  -2.35816
         2       170        45  -4.12019
         2       138        72  -2.35816