# WEL package for MODFLOW-NWT generated by Flopy 3.3.5
        25         1 
        25         0 # stress period 1
         2       134        70      -2.4242878
         2       174        49      -3.2525544
         2       174        48      -3.2525544
         2       173        49      -3.2525544
         2       135        70      -2.4242878
         2       172        45      -4.1319375
         2       136        70      -2.4242878
         2       171        46      -4.1319375
         2       174        50      -3.2525544
         2       171        45      -4.1319375
         2       170        45      -4.1319375
         2       150        65    -0.086043924
         2       137        70      -2.4242878
         2       149        65    -0.086043924
         2       149        64    -0.086043924
         2       148        65    -0.114573516
         2       147        65    -0.114573516
         2       147        64    -0.114573516
         2       139        70      -2.4242878
         2       138        69      -2.4242878
         2       138        72      -2.4242878
         2       138        71      -2.4242878
         2       171        44      -4.1319375
         2       175        49      -3.2525544
         2       138        70      -2.4242878
        25         0 # stress period 2
         2       170        45       -4.186638
         2       148        65     -0.22914703
         2       136        70       -2.379441
         2       150        65     -0.17208785
         2       175        49      -3.3779256
         2       173        49      -3.3779256
         2       171        46       -4.186638
         2       139        70       -2.379441
         2       138        69       -2.379441
         2       147        64     -0.22914703
         2       171        44       -4.186638
         2       138        72       -2.379441
         2       149        64     -0.17208785
         2       174        50      -3.3779256
         2       149        65     -0.17208785
         2       138        70       -2.379441
         2       174        48      -3.3779256
         2       137        70       -2.379441
         2       147        65     -0.22914703
         2       171        45       -4.186638
         2       172        45       -4.186638
         2       135        70       -2.379441
         2       138        71       -2.379441
         2       174        49      -3.3779256
         2       134        70       -2.379441
        25         0 # stress period 3
         2       134        70      -2.3986187
         2       171        45      -4.2330294
         2       138        70      -2.3986187
         2       149        64      -0.5565525
         2       138        69      -2.3986187
         2       147        65     -0.74108875
         2       175        49     -0.89342874
         2       173        49     -0.89342874
         2       148        65     -0.74108875
         2       138        72      -2.3986187
         2       174        49     -0.89342874
         2       174        48     -0.89342874
         2       139        70      -2.3986187
         2       171        44      -4.2330294
         2       147        64     -0.74108875
         2       170        45      -4.2330294
         2       174        50     -0.89342874
         2       136        70      -2.3986187
         2       138        71      -2.3986187
         2       137        70      -2.3986187
         2       172        45      -4.2330294
         2       150        65      -0.5565525
         2       135        70      -2.3986187
         2       171        46      -4.2330294
         2       149        65      -0.5565525
        25         0 # stress period 4
         2       174        48      -1.9450026
         2       174        50      -1.9450026
         2       138        72       -2.418327
         2       147        64      -1.3026572
         2       174        49      -1.9450026
         2       135        70       -2.418327
         2       171        45       -4.269327
         2       138        71       -2.418327
         2       137        70       -2.418327
         2       150        65      -0.9782866
         2       138        70       -2.418327
         2       172        45       -4.269327
         2       147        65      -1.3026572
         2       148        65      -1.3026572
         2       138        69       -2.418327
         2       173        49      -1.9450026
         2       170        45       -4.269327
         2       149        64      -0.9782866
         2       171        44       -4.269327
         2       175        49      -1.9450026
         2       149        65      -0.9782866
         2       136        70       -2.418327
         2       134        70       -2.418327
         2       171        46       -4.269327
         2       139        70       -2.418327
        25         0 # stress period 5
         2       174        49      -3.5218232
         2       148        65      -1.8642255
         2       171        45       -4.327019
         2       149        65      -1.4000206
         2       147        64      -1.8642255
         2       149        64      -1.4000206
         2       138        70      -2.3315203
         2       136        70      -2.3315203
         2       173        49      -3.5218232
         2       137        70      -2.3315203
         2       147        65      -1.8642255
         2       172        45       -4.327019
         2       138        72      -2.3315203
         2       135        70      -2.3315203
         2       170        45       -4.327019
         2       175        49      -3.5218232
         2       174        48      -3.5218232
         2       174        50      -3.5218232
         2       171        44       -4.327019
         2       150        65      -1.4000206
         2       138        69      -2.3315203
         2       138        71      -2.3315203
         2       134        70      -2.3315203
         2       171        46       -4.327019
         2       139        70      -2.3315203
        25         0 # stress period 6
         2       139        70      -1.8127313
         2       149        65      -1.8217547
         2       174        50      -3.9599583
         2       173        49      -3.9599583
         2       174        49      -3.9599583
         2       138        69      -1.8127313
         2       147        65      -2.4257941
         2       149        64      -1.8217547
         2       136        70      -1.8127313
         2       171        45      -4.1385355
         2       170        45      -4.1385355
         2       137        70      -1.8127313
         2       138        71      -1.8127313
         2       175        49      -3.9599583
         2       174        48      -3.9599583
         2       134        70      -1.8127313
         2       147        64      -2.4257941
         2       172        45      -4.1385355
         2       138        70      -1.8127313
         2       138        72      -1.8127313
         2       148        65      -2.4257941
         2       150        65      -1.8217547
         2       171        44      -4.1385355
         2       135        70      -1.8127313
         2       171        46      -4.1385355
        25         0 # stress period 7
         2       138        69      -1.6940477
         2       149        64      -2.2434886
         2       135        70      -1.6940477
         2       138        72      -1.6940477
         2       138        71      -1.6940477
         2       134        70      -1.6940477
         2       149        65      -2.2434886
         2       174        49      -1.6698925
         2       171        46       -4.401524
         2       170        45       -4.401524
         2       147        64      -2.9873624
         2       172        45       -4.401524
         2       148        65      -2.9873624
         2       138        70      -1.6940477
         2       139        70      -1.6940477
         2       171        44       -4.401524
         2       150        65      -2.2434886
         2       174        50      -1.6698925
         2       174        48      -1.6698925
         2       137        70      -1.6940477
         2       175        49      -1.6698925
         2       173        49      -1.6698925
         2       136        70      -1.6940477
         2       147        65      -2.9873624
         2       171        45       -4.401524
        25         0 # stress period 8
         2       147        65       -3.548931
         2       138        69     -0.83747333
         2       138        72     -0.83747333
         2       149        65       -2.665223
         2       150        65       -2.665223
         2       134        70     -0.83747333
         2       173        49      -2.1275806
         2       172        45       -4.515623
         2       174        48      -2.1275806
         2       174        50      -2.1275806
         2       135        70     -0.83747333
         2       170        45       -4.515623
         2       171        44       -4.515623
         2       148        65       -3.548931
         2       171        45       -4.515623
         2       171        46       -4.515623
         2       139        70     -0.83747333
         2       138        71     -0.83747333
         2       137        70     -0.83747333
         2       174        49      -2.1275806
         2       149        64       -2.665223
         2       138        70     -0.83747333
         2       175        49      -2.1275806
         2       147        64       -3.548931
         2       136        70     -0.83747333
        25         0 # stress period 9
         2       138        72      -0.5600847
         2       139        70      -0.5600847
         2       175        49      -2.9979532
         2       174        50      -2.9979532
         2       138        70      -0.5600847
         2       148        65      -3.9545608
         2       174        49      -2.9979532
         2       174        48      -2.9979532
         2       147        64      -3.9545608
         2       135        70      -0.5600847
         2       147        65      -3.9545608
         2       170        45      -4.4816937
         2       172        45      -4.4816937
         2       138        69      -0.5600847
         2       134        70      -0.5600847
         2       171        45      -4.4816937
         2       138        71      -0.5600847
         2       149        65      -3.6682365
         2       136        70      -0.5600847
         2       137        70      -0.5600847
         2       173        49      -2.9979532
         2       149        64      -3.6682365
         2       171        44      -4.4816937
         2       150        65      -3.6682365
         2       171        46      -4.4816937
        25         0 # stress period 10
         2       139        70     -0.60450596
         2       172        45      -4.3457217
         2       150        65      -1.2449012
         2       170        45      -4.3457217
         2       175        49      -5.2032804
         2       135        70     -0.60450596
         2       138        71     -0.60450596
         2       138        70     -0.60450596
         2       136        70     -0.60450596
         2       174        49      -5.2032804
         2       134        70     -0.60450596
         2       171        45      -4.3457217
         2       147        64      -5.1137347
         2       149        64      -1.2449012
         2       137        70     -0.60450596
         2       149        65      -1.2449012
         2       138        69     -0.60450596
         2       138        72     -0.60450596
         2       171        46      -4.3457217
         2       147        65      -5.1137347
         2       173        49      -5.2032804
         2       148        65      -5.1137347
         2       174        48      -5.2032804
         2       174        50      -5.2032804
         2       171        44      -4.3457217
        25         0 # stress period 11
         2       149        64       -2.179995
         2       175        49      -3.9135568
         2       171        44       -4.549002
         2       171        45       -4.549002
         2       139        70      -1.5884336
         2       174        50      -3.9135568
         2       136        70      -1.5884336
         2       138        70      -1.5884336
         2       148        65      -5.4716954
         2       174        48      -3.9135568
         2       171        46       -4.549002
         2       147        64      -5.4716954
         2       150        65       -2.179995
         2       138        72      -1.5884336
         2       147        65      -5.4716954
         2       170        45       -4.549002
         2       138        69      -1.5884336
         2       174        49      -3.9135568
         2       173        49      -3.9135568
         2       172        45       -4.549002
         2       137        70      -1.5884336
         2       138        71      -1.5884336
         2       134        70      -1.5884336
         2       135        70      -1.5884336
         2       149        65       -2.179995
        25         0 # stress period 12
         2       138        69      -2.2997673
         2       150        65       -5.044225
         2       149        64       -5.044225
         2       171        44       -4.450204
         2       136        70      -2.2997673
         2       138        72      -2.2997673
         2       147        65        -3.20578
         2       175        49       -5.704908
         2       135        70      -2.2997673
         2       137        70      -2.2997673
         2       138        71      -2.2997673
         2       173        49       -5.704908
         2       174        49       -5.704908
         2       174        50       -5.704908
         2       147        64        -3.20578
         2       149        65       -5.044225
         2       148        65        -3.20578
         2       174        48       -5.704908
         2       171        45       -4.450204
         2       171        46       -4.450204
         2       134        70      -2.2997673
         2       138        70      -2.2997673
         2       172        45       -4.450204
         2       139        70      -2.2997673
         2       170        45       -4.450204
        25         0 # stress period 13
         2       138        69       -1.632479
         2       138        70       -1.632479
         2       174        49       -7.266923
         2       171        45      -4.3654795
         2       147        64      -1.1357452
         2       138        72       -1.632479
         2       149        65      -3.0735884
         2       137        70       -1.632479
         2       149        64      -3.0735884
         2       138        71       -1.632479
         2       171        46      -4.3654795
         2       175        49       -7.266923
         2       147        65      -1.1357452
         2       150        65      -3.0735884
         2       139        70       -1.632479
         2       174        48       -7.266923
         2       170        45      -4.3654795
         2       174        50       -7.266923
         2       148        65      -1.1357452
         2       171        44      -4.3654795
         2       173        49       -7.266923
         2       134        70       -1.632479
         2       135        70       -1.632479
         2       136        70       -1.632479
         2       172        45      -4.3654795
        22         0 # stress period 14
         2       170        45       -4.454568
         2       137        70      -2.2458842
         2       138        72      -2.2458842
         2       171        46       -4.454568
         2       149        65      -4.0646367
         2       174        50      -3.9631197
         2       174        49      -3.9631197
         2       135        70      -2.2458842
         2       172        45       -4.454568
         2       134        70      -2.2458842
         2       171        45       -4.454568
         2       138        71      -2.2458842
         2       171        44       -4.454568
         2       173        49      -3.9631197
         2       139        70      -2.2458842
         2       136        70      -2.2458842
         2       149        64      -4.0646367
         2       138        69      -2.2458842
         2       175        49      -3.9631197
         2       150        65      -4.0646367
         2       174        48      -3.9631197
         2       138        70      -2.2458842
        22         0 # stress period 15
         2       137        70      -2.3158529
         2       175        49      -3.8400888
         2       136        70      -2.3158529
         2       170        45       -4.304879
         2       173        49      -3.8400888
         2       139        70      -2.3158529
         2       174        50      -3.8400888
         2       135        70      -2.3158529
         2       174        48      -3.8400888
         2       150        65       -5.685524
         2       134        70      -2.3158529
         2       172        45       -4.304879
         2       171        46       -4.304879
         2       138        69      -2.3158529
         2       149        65       -5.685524
         2       171        45       -4.304879
         2       138        71      -2.3158529
         2       138        72      -2.3158529
         2       171        44       -4.304879
         2       138        70      -2.3158529
         2       174        49      -3.8400888
         2       149        64       -5.685524
        22         0 # stress period 16
         2       171        46      -1.0208622
         2       174        50      -0.6473346
         2       138        71      -2.3584285
         2       138        70      -2.3584285
         2       139        70      -2.3584285
         2       174        48      -0.6473346
         2       149        65       -2.201346
         2       173        49      -0.6473346
         2       174        49      -0.6473346
         2       137        70      -2.3584285
         2       138        72      -2.3584285
         2       171        45      -1.0208622
         2       134        70      -2.3584285
         2       150        65       -2.201346
         2       175        49      -0.6473346
         2       171        44      -1.0208622
         2       138        69      -2.3584285
         2       135        70      -2.3584285
         2       149        64       -2.201346
         2       136        70      -2.3584285
         2       170        45      -1.0208622
         2       172        45      -1.0208622
        22         0 # stress period 17
         2       137        70      -2.2525704
         2       150        65       -3.272904
         2       170        45     -0.29161105
         2       175        49      -4.2359824
         2       174        49      -4.2359824
         2       171        44     -0.29161105
         2       171        46     -0.29161105
         2       149        64       -3.272904
         2       149        65       -3.272904
         2       171        45     -0.29161105
         2       138        72      -2.2525704
         2       134        70      -2.2525704
         2       136        70      -2.2525704
         2       135        70      -2.2525704
         2       173        49      -4.2359824
         2       172        45     -0.29161105
         2       139        70      -2.2525704
         2       138        70      -2.2525704
         2       138        69      -2.2525704
         2       174        50      -4.2359824
         2       174        48      -4.2359824
         2       138        71      -2.2525704
        22         0 # stress period 18
         2       174        48      -4.1040998
         2       171        46     -0.85042673
         2       171        44     -0.85042673
         2       138        69      -2.2743943
         2       149        64      -5.6668057
         2       174        50      -4.1040998
         2       149        65      -5.6668057
         2       138        71      -2.2743943
         2       138        72      -2.2743943
         2       135        70      -2.2743943
         2       134        70      -2.2743943
         2       170        45     -0.85042673
         2       138        70      -2.2743943
         2       175        49      -4.1040998
         2       136        70      -2.2743943
         2       171        45     -0.85042673
         2       139        70      -2.2743943
         2       174        49      -4.1040998
         2       137        70      -2.2743943
         2       172        45     -0.85042673
         2       150        65      -5.6668057
         2       173        49      -4.1040998
        22         0 # stress period 19
         2       138        72      -2.1961253
         2       171        46      -1.4092424
         2       174        49      -2.7608457
         2       136        70      -2.1961253
         2       174        50      -2.7608457
         2       135        70      -2.1961253
         2       139        70      -2.1961253
         2       174        48      -2.7608457
         2       134        70      -2.1961253
         2       175        49      -2.7608457
         2       172        45      -1.4092424
         2       138        70      -2.1961253
         2       170        45      -1.4092424
         2       150        65      -5.7347045
         2       137        70      -2.1961253
         2       173        49      -2.7608457
         2       171        44      -1.4092424
         2       138        69      -2.1961253
         2       149        65      -5.7347045
         2       149        64      -5.7347045
         2       171        45      -1.4092424
         2       138        71      -2.1961253
        17         0 # stress period 20
         2       172        45      -2.1217835
         2       150        65      -5.5581656
         2       170        45      -2.1217835
         2       171        44      -2.1217835
         2       138        71      -0.9885342
         2       138        70      -0.9885342
         2       136        70      -0.9885342
         2       171        45      -2.1217835
         2       149        64      -5.5581656
         2       134        70      -0.9885342
         2       139        70      -0.9885342
         2       138        69      -0.9885342
         2       138        72      -0.9885342
         2       135        70      -0.9885342
         2       171        46      -2.1217835
         2       149        65      -5.5581656
         2       137        70      -0.9885342
        17         0 # stress period 21
         2       171        45       -4.290226
         2       171        46       -4.290226
         2       139        70       -1.376104
         2       138        70       -1.376104
         2       138        69       -1.376104
         2       172        45       -4.290226
         2       150        65      -5.9128685
         2       138        72       -1.376104
         2       149        65      -5.9128685
         2       137        70       -1.376104
         2       135        70       -1.376104
         2       170        45       -4.290226
         2       149        64      -5.9128685
         2       136        70       -1.376104
         2       138        71       -1.376104
         2       134        70       -1.376104
         2       171        44       -4.290226
        20         0 # stress period 22
         2       171        44      -4.1552315
         2       170        45      -4.1552315
         2       136        70       -2.368083
         2       171        46      -4.1552315
         2       171        45      -4.1552315
         2       138        71       -2.368083
         2       138        72       -2.368083
         2       150        65      -5.8122315
         2       149        65      -5.8122315
         2       147        65      -2.4112427
         2       137        70       -2.368083
         2       148        65      -2.4112427
         2       147        64      -2.4112427
         2       138        70       -2.368083
         2       149        64      -5.8122315
         2       139        70       -2.368083
         2       172        45      -4.1552315
         2       138        69       -2.368083
         2       134        70       -2.368083
         2       135        70       -2.368083
        20         0 # stress period 23
         2       170        45      -4.1828284
         2       135        70       -2.242433
         2       136        70       -2.242433
         2       171        46      -4.1828284
         2       137        70       -2.242433
         2       148        65      -3.7258162
         2       149        64      -5.8737874
         2       171        44      -4.1828284
         2       138        71       -2.242433
         2       149        65      -5.8737874
         2       171        45      -4.1828284
         2       138        69       -2.242433
         2       172        45      -4.1828284
         2       139        70       -2.242433
         2       138        70       -2.242433
         2       147        64      -3.7258162
         2       134        70       -2.242433
         2       150        65      -5.8737874
         2       138        72       -2.242433
         2       147        65      -3.7258162
        20         0 # stress period 24
         2       138        69      -2.3260207
         2       170        45      -4.3329306
         2       149        64         -1.0096
         2       139        70      -2.3260207
         2       136        70      -2.3260207
         2       138        71      -2.3260207
         2       171        45      -4.3329306
         2       148        65      -1.4540247
         2       171        44      -4.3329306
         2       147        65      -1.4540247
         2       138        70      -2.3260207
         2       147        64      -1.4540247
         2       171        46      -4.3329306
         2       134        70      -2.3260207
         2       172        45      -4.3329306
         2       149        65         -1.0096
         2       150        65         -1.0096
         2       138        72      -2.3260207
         2       137        70      -2.3260207
         2       135        70      -2.3260207
        20         0 # stress period 25
         2       170        45      -4.2522535
         2       149        65       -4.711219
         2       137        70      -2.3437457
         2       136        70      -2.3437457
         2       171        46      -4.2522535
         2       138        70      -2.3437457
         2       171        45      -4.2522535
         2       134        70      -2.3437457
         2       149        64       -4.711219
         2       147        64      -3.2204475
         2       172        45      -4.2522535
         2       150        65       -4.711219
         2       147        65      -3.2204475
         2       135        70      -2.3437457
         2       171        44      -4.2522535
         2       139        70      -2.3437457
         2       148        65      -3.2204475
         2       138        71      -2.3437457
         2       138        72      -2.3437457
         2       138        69      -2.3437457
        20         0 # stress period 26
         2       137        70      -2.3860118
         2       171        44      -4.1248746
         2       139        70      -2.3860118
         2       136        70      -2.3860118
         2       138        70      -2.3860118
         2       150        65       -5.900634
         2       147        65       -5.291857
         2       138        72      -2.3860118
         2       149        65       -5.900634
         2       147        64       -5.291857
         2       171        45      -4.1248746
         2       149        64       -5.900634
         2       135        70      -2.3860118
         2       170        45      -4.1248746
         2       138        69      -2.3860118
         2       172        45      -4.1248746
         2       148        65       -5.291857
         2       171        46      -4.1248746
         2       134        70      -2.3860118
         2       138        71      -2.3860118
        20         0 # stress period 27
         2       138        72      -2.3860118
         2       171        45      -4.1813874
         2       147        65      -5.4285774
         2       135        70      -2.3860118
         2       147        64      -5.4285774
         2       137        70      -2.3860118
         2       170        45      -4.1813874
         2       172        45      -4.1813874
         2       138        69      -2.3860118
         2       171        44      -4.1813874
         2       148        65      -5.4285774
         2       138        71      -2.3860118
         2       149        64       -5.888993
         2       139        70      -2.3860118
         2       171        46      -4.1813874
         2       150        65       -5.888993
         2       138        70      -2.3860118
         2       149        65       -5.888993
         2       136        70      -2.3860118
         2       134        70      -2.3860118
        20         0 # stress period 28
         2       147        65       -4.243306
         2       139        70      -2.3860118