# WEL package for MODFLOW-NWT generated by Flopy 3.3.5
        30         1 
        30         0 # stress period 1
         2       134        70  -2.57025
         2       172        54        -0
         2       136        70  -2.57025
         2       175        49  -4.62789
         2       137        70  -2.57025
         2       138        69  -2.57025
         2       171        54        -0
         2       138        70  -2.57025
         2       174        50  -4.62789
         2       138        71  -2.57025
         2       138        72  -2.57025
         2       172        45  -3.92991
         2       174        49  -4.62789
         2       172        53        -0
         2       171        44  -3.92991
         2       147        65   -3.1346
         2       171        46  -3.92991
         2       172        55        -0
         2       174        48  -4.62789
         2       148        65   -3.1346
         2       149        64  -5.17071
         2       173        49  -4.62789
         2       149        65  -5.17071
         2       171        45  -3.92991
         2       150        65  -5.17071
         2       170        45  -3.92991
         2       173        54        -0
         2       147        64   -3.1346
         2       135        70  -2.57025
         2       139        70  -2.57025