# WEL package for MODFLOW-2005 generated by Flopy 3.3.5
        31         0 
        31         0 # stress period 1
         2       147        65     -4.58
         2       147        64     -4.58
         2       148        65     -4.58
         2       149        65    -15.35
         2       149        64    -15.35
         2       150        65    -15.35
         2       171        45     -3.59
         2       170        45     -3.59
         2       172        45     -3.59
         2       171        46     -3.59
         2       171        44     -3.59
         2       174        49     -3.87
         2       173        49     -3.87
         2       175        49     -3.87
         2       174        50     -3.87
         2       174        48     -3.87
         2       172        54         0
         2       171        54         0
         2       173        54         0
         2       172        55         0
         2       172        53         0
         2       138        70     -5.35
         2       134        70     -5.35
         2       135        70     -5.35
         2       136        70     -5.35
         2       137        70     -5.35
         2       138        71     -5.35
         2       138        72     -5.35
         2       138        69     -5.35
         2       139        70     -5.35
         2        66       102      -5.2
        31         0 # stress period 2
         2       147        65     -4.85
         2       147        64     -4.85
         2       148        65     -4.85
         2       149        65    -15.94
         2       149        64    -15.94
         2       150        65    -15.94
         2       171        45     -2.09
         2       170        45     -2.09
         2       172        45     -2.09
         2       171        46     -2.09
         2       171        44     -2.09
         2       174        49     -4.09
         2       173        49     -4.09
         2       175        49     -4.09
         2       174        50     -4.09
         2       174        48     -4.09
         2       172        54     -0.15
         2       171        54     -0.15
         2       173        54     -0.15
         2       172        55     -0.15
         2       172        53     -0.15
         2       138        70     -5.15
         2       134        70     -5.15
         2       135        70     -5.15
         2       136        70     -5.15
         2       137        70     -5.15
         2       138        71     -5.15
         2       138        72     -5.15
         2       138        69     -5.15
         2       139        70     -5.15
         2        66       102      -5.2
        31         0 # stress period 3
         2       147        65     -3.55
         2       147        64     -3.55
         2       148        65     -3.55
         2       149        65    -19.05
         2       149        64    -19.05
         2       150        65    -19.05
         2       171        45     -2.01
         2       170        45     -2.01
         2       172        45     -2.01
         2       171        46     -2.01
         2       171        44     -2.01
         2       174        49     -4.37
         2       173        49     -4.37
         2       175        49     -4.37
         2       174        50     -4.37
         2       174        48     -4.37
         2       172        54     -1.62
         2       171        54     -1.62
         2       173        54     -1.62
         2       172        55     -1.62
         2       172        53     -1.62
         2       138        70      -5.4
         2       134        70      -5.4
         2       135        70      -5.4
         2       136        70      -5.4
         2       137        70      -5.4
         2       138        71      -5.4
         2       138        72      -5.4
         2       138        69      -5.4
         2       139        70      -5.4
         2        66       102      -5.2
        31         0 # stress period 4
         2       147        65      -2.1
         2       147        64      -2.1
         2       148        65      -2.1
         2       149        65    -21.36
         2       149        64    -21.36
         2       150        65    -21.36
         2       171        45     -3.73
         2       170        45     -3.73
         2       172        45     -3.73
         2       171        46     -3.73
         2       171        44     -3.73
         2       174        49     -4.45
         2       173        49     -4.45
         2       175        49     -4.45
         2       174        50     -4.45
         2       174        48     -4.45
         2       172        54         0
         2       171        54         0
         2       173        54         0
         2       172        55         0
         2       172        53         0
         2       138        70     -5.45
         2       134        70     -5.45
         2       135        70     -5.45
         2       136        70     -5.45
         2       137        70     -5.45
         2       138        71     -5.45
         2       138        72     -5.45
         2       138        69     -5.45
         2       139        70     -5.45
         2        66       102      -5.2
        31         0 # stress period 5
         2       147        65     -2.22
         2       147        64     -2.22
         2       148        65     -2.22
         2       149        65    -23.33
         2       149        64    -23.33
         2       150        65    -23.33
         2       171        45     -3.21
         2       170        45     -3.21
         2       172        45     -3.21
         2       171        46     -3.21
         2       171        44     -3.21
         2       174        49     -4.19
         2       173        49     -4.19
         2       175        49     -4.19
         2       174        50     -4.19
         2       174        48     -4.19
         2       172        54         0
         2       171        54         0
         2       173        54         0
         2       172        55         0
         2       172        53         0
         2       138        70     -5.09
         2       134        70     -5.09
         2       135        70     -5.09
         2       136        70     -5.09
         2       137        70     -5.09
         2       138        71     -5.09
         2       138        72     -5.09
         2       138        69     -5.09
         2       139        70     -5.09
         2        66       102      -5.2
        31         0 # stress period 6
         2       147        65      -5.1
         2       147        64      -5.1
         2       148        65      -5.1
         2       149        65    -23.01
         2       149        64    -23.01
         2       150        65    -23.01
         2       171        45     -4.11
         2       170        45     -4.11
         2       172        45     -4.11
         2       171        46     -4.11
         2       171        44     -4.11
         2       174        49     -4.33
         2       173        49     -4.33
         2       175        49     -4.33
         2       174        50     -4.33
         2       174        48     -4.33
         2       172        54         0
         2       171        54         0
         2       173        54         0
         2       172        55         0
         2       172        53         0
         2       138        70     -3.42
         2       134        70     -3.42
         2       135        70     -3.42
         2       136        70     -3.42
         2       137        70     -3.42
         2       138        71     -3.42
         2       138        72     -3.42
         2       138        69     -3.42
         2       139        70     -3.42
         2        66       102      -5.2
        31         0 # stress period 7
         2       147        65      -5.2
         2       147        64      -5.2
         2       148        65      -5.2
         2       149        65    -22.47
         2       149        64    -22.47
         2       150        65    -22.47
         2       171        45     -3.93
         2       170        45     -3.93
         2       172        45     -3.93
         2       171        46     -3.93
         2       171        44     -3.93
         2       174        49     -4.17
         2       173        49     -4.17
         2       175        49     -4.17
         2       174        50     -4.17
         2       174        48     -4.17
         2       172        54         0
         2       171        54         0
         2       173        54         0
         2       172        55         0
         2       172        53         0
         2       138        70     -3.46
         2       134        70     -3.46
         2       135        70     -3.46
         2       136        70     -3.46
         2       137        70     -3.46
         2       138        71     -3.46
         2       138        72     -3.46
         2       138        69     -3.46
         2       139        70     -3.46
         2        66       102      -5.2
        31         0 # stress period 8
         2       147        65     -0.66
         2       147        64     -0.66
         2       148        65     -0.66
         2       149        65    -24.39
         2       149        64    -24.39
         2       150        65    -24.39
         2       171        45     -2.74
         2       170        45     -2.74
         2       172        45     -2.74
         2       171        46     -2.74
         2       171        44     -2.74
         2       174        49     -4.38
         2       173        49     -4.38
         2       175        49     -4.38
         2       174        50     -4.38
         2       174        48     -4.38
         2       172        54         0
         2       171        54         0
         2       173        54         0
         2       172        55         0
         2       172        53         0
         2       138        70     -4.11
         2       134        70     -4.11
         2       135        70     -4.11
         2       136        70     -4.11
         2       137        70     -4.11
         2       138        71     -4.11
         2       138        72     -4.11
         2       138        69     -4.11
         2       139        70     -4.11
         2        66       102      -5.2
        31         0 # stress period 9
         2       147        65         0
         2       147        64         0
         2       148        65         0
         2       149        65    -26.48
         2       149        64    -26.48
         2       150        65    -26.48
         2       171        45     -1.69
         2       170        45     -1.69
         2       172        45     -1.69
         2       171        46     -1.69
         2       171        44     -1.69
         2       174        49     -4.31
         2       173        49     -4.31
         2       175        49     -4.31
         2       174        50     -4.31
         2       174        48     -4.31
         2       172        54     -3.99
         2       171        54     -3.99
         2       173        54     -3.99
         2       172        55     -3.99
         2       172        53     -3.99
         2       138        70     -4.11
         2       134        70     -4.11
         2       135        70     -4.11
         2       136        70     -4.11
         2       137        70     -4.11
         2       138        71     -4.11
         2       138        72     -4.11
         2       138        69     -4.11
         2       139        70     -4.11
         2        66       102      -5.2
        31         0 # stress period 10
         2       147        65     -3.46
         2       147        64     -3.46
         2       148        65     -3.46
         2       149        65    -26.31
         2       149        64    -26.31
         2       150        65    -26.31
         2       171        45     -4.04
         2       170        45     -4.04
         2       172        45     -4.04
         2       171        46     -4.04
         2       171        44     -4.04
         2       174        49     -4.15
         2       173        49     -4.15
         2       175        49     -4.15
         2       174        50     -4.15
         2       174        48     -4.15
         2       172        54     -2.74
         2       171        54     -2.74
         2       173        54     -2.74
         2       172        55     -2.74
         2       172        53     -2.74
         2       138        70     -2.31
         2       134        70     -2.31
         2       135        70     -2.31
         2       136        70     -2.31
         2       137        70     -2.31
         2       138        71     -2.31
         2       138        72     -2.31
         2       138        69     -2.31
         2       139        70     -2.31
         2        66       102      -5.2
        31         0 # stress period 11
         2       147        65     -2.81
         2       147        64     -2.81
         2       148        65     -2.81
         2       149        65     -23.6
         2       149        64     -23.6
         2       150        65     -23.6
         2       171        45     -4.02
         2       170        45     -4.02
         2       172        45     -4.02
         2       171        46     -4.02
         2       171        44     -4.02
         2       174        49     -3.88
         2       173        49     -3.88
         2       175        49     -3.88
         2       174        50     -3.88
         2       174        48     -3.88
         2       172        54         0
         2       171        54         0
         2       173        54         0
         2       172        55         0
         2       172        53         0
         2       138        70     -3.54
         2       134        70     -3.54
         2       135        70     -3.54
         2       136        70     -3.54
         2       137        70     -3.54
         2       138        71     -3.54
         2       138        72     -3.54
         2       138        69     -3.54
         2       139        70     -3.54
         2        66       102      -5.2
        31         0 # stress period 12
         2       147        65     -8.55
         2       147        64     -8.55
         2       148        65     -8.55
         2       149        65     -21.5
         2       149        64     -21.5
         2       150        65     -21.5
         2       171        45     -2.46
         2       170        45     -2.46
         2       172        45     -2.46
         2       171        46     -2.46
         2       171        44     -2.46
         2       174        49      -2.8
         2       173        49      -2.8
         2       175        49      -2.8
         2       174        50      -2.8
         2       174        48      -2.8
         2       172        54         0
         2       171        54         0
         2       173        54         0
         2       172        55         0
         2       172        53         0
         2       138        70      -5.2
         2       134        70      -5.2
         2       135        70      -5.2
         2       136        70      -5.2
         2       137        70      -5.2
         2       138        71      -5.2
         2       138        72      -5.2
         2       138        69      -5.2
         2       139        70      -5.2
         2        66       102      -5.2
        31         0 # stress period 13
         2       147        65     -5.89
         2       147        64     -5.89
         2       148        65     -5.89
         2       149        65    -17.12
         2       149        64    -17.12
         2       150        65    -17.12
         2       171        45     -1.74
         2       170        45     -1.74
         2       172        45     -1.74
         2       171        46     -1.74
         2       171        44     -1.74
         2       174        49     -3.44
         2       173        49     -3.44
         2       175        49     -3.44
         2       174        50     -3.44
         2       174        48     -3.44
         2       172        54         0
         2       171        54         0
         2       173        54         0
         2       172        55         0
         2       172        53         0
         2       138        70     -5.58
         2       134        70     -5.58
         2       135        70     -5.58
         2       136        70     -5.58
         2       137        70     -5.58
         2       138        71     -5.58
         2       138        72     -5.58
         2       138        69     -5.58
         2       139        70     -5.58
         2        66       102      -5.2
        31         0 # stress period 14
         2       147        65     -2.77
         2       147        64     -2.77
         2       148        65     -2.77
         2       149        65    -20.95
         2       149        64    -20.95
         2       150        65    -20.95
         2       171        45     -3.93
         2       170        45     -3.93
         2       172        45     -3.93
         2       171        46     -3.93
         2       171        44     -3.93
         2       174        49     -4.16
         2       173        49     -4.16
         2       175        49     -4.16
         2       174        50     -4.16
         2       174        48     -4.16
         2       172        54         0
         2       171        54         0
         2       173        54         0
         2       172        55         0
         2       172        53         0
         2       138        70     -5.64
         2       134        70     -5.64
         2       135        70     -5.64
         2       136        70     -5.64
         2       137        70     -5.64
         2       138        71     -5.64
         2       138        72     -5.64
         2       138        69     -5.64
         2       139        70     -5.64
         2        66       102      -5.2
        31         0 # stress period 15
         2       147        65     -4.91
         2       147        64     -4.91
         2       148        65     -4.91
         2       149        65    -21.95
         2       149        64    -21.95
         2       150        65    -21.95
         2       171        45     -2.28
         2       170        45     -2.28
         2       172        45     -2.28
         2       171        46     -2.28
         2       171        44     -2.28
         2       174        49     -3.99
         2       173        49     -3.99
         2       175        49     -3.99
         2       174        50     -3.99
         2       174        48     -3.99
         2       172        54         0
         2       171        54         0
         2       173        54         0
         2       172        55         0
         2       172        53         0
         2       138        70     -5.43
         2       134        70     -5.43
         2       135        70     -5.43
         2       136        70     -5.43
         2       137        70     -5.43
         2       138        71     -5.43
         2       138        72     -5.43
         2       138        69     -5.43
         2       139        70     -5.43
         2        66       102      -5.2
        31         0 # stress period 16
         2       147        65     -1.69
         2       147        64     -1.69
         2       148        65     -1.69
         2       149        65    -20.45
         2       149        64    -20.45
         2       150        65    -20.45
         2       171        45     -2.74
         2       170        45     -2.74
         2       172        45     -2.74
         2       171        46     -2.74
         2       171        44     -2.74
         2       174        49     -4.12
         2       173        49     -4.12
         2       175        49     -4.12
         2       174        50     -4.12
         2       174        48     -4.12
         2       172        54     -0.29
         2       171        54     -0.29
         2       173        54     -0.29
         2       172        55     -0.29
         2       172        53     -0.29
         2       138        70     -5.34
         2       134        70     -5.34
         2       135        70     -5.34
         2       136        70     -5.34
         2       137        70     -5.34
         2       138        71     -5.34
         2       138        72     -5.34
         2       138        69     -5.34
         2       139        70     -5.34
         2        66       102      -5.2
        31         0 # stress period 17
         2       147        65     -1.42
         2       147        64     -1.42
         2       148        65     -1.42
         2       149        65    -15.19
         2       149        64    -15.19
         2       150        65    -15.19
         2       171        45     -3.86
         2       170        45     -3.86
         2       172        45     -3.86
         2       171        46     -3.86
         2       171        44     -3.86
         2       174        49     -3.98
         2       173        49     -3.98
         2       175        49     -3.98
         2       174        50     -3.98
         2       174        48     -3.98
         2       172        54         0
         2       171        54         0
         2       173        54         0
         2       172        55         0
         2       172        53         0
         2       138        70     -5.38
         2       134        70     -5.38
         2       135        70     -5.38
         2       136        70     -5.38
         2       137        70     -5.38
         2       138        71     -5.38
         2       138        72     -5.38
         2       138        69     -5.38
         2       139        70     -5.38
         2        66       102      -5.2
        31         0 # stress period 18
         2       147        65     -3.16
         2       147        64     -3.16
         2       148        65     -3.16
         2       149        65     -5.48
         2       149        64     -5.48
         2       150        65     -5.48
         2       171        45     -3.28
         2       170        45     -3.28
         2       172        45     -3.28
         2       171        46     -3.28
         2       171        44     -3.28
         2       174        49     -3.88
         2       173        49     -3.88
         2       175        49     -3.88
         2       174        50     -3.88
         2       174        48     -3.88
         2       172        54         0
         2       171        54         0
         2       173        54         0
         2       172        55         0
         2       172        53         0
         2       138        70     -5.32
         2       134        70     -5.32
         2       135        70     -5.32
         2       136        70     -5.32
         2       137        70     -5.32
         2       138        71     -5.32
         2       138        72     -5.32
         2       138        69     -5.32
         2       139        70     -5.32
         2        66       102      -5.2
        31         0 # stress period 19
         2       147        65     -4.22
         2       147        64     -4.22
         2       148        65     -4.22
         2       149        65     -7.05
         2       149        64     -7.05
         2       150        65     -7.05
         2       171        45     -3.78
         2       170        45     -3.78
         2       172        45     -3.78
         2       171        46     -3.78
         2       171        44     -3.78
         2       174        49     -5.24
         2       173        49     -5.24
         2       175        49     -5.24
         2       174        50     -5.24
         2       174        48     -5.24
         2       172        54         0
         2       171        54         0
         2       173        54         0
         2       172        55         0
         2       172        53         0
         2       138        70     -5.13
         2       134        70     -5.13
         2       135        70     -5.13
         2       136        70     -5.13
         2       137        70     -5.13
         2       138        71     -5.13
         2       138        72     -5.13
         2       138        69     -5.13
         2       139        70     -5.13
         2        66       102      -5.2
        31         0 # stress period 20
         2       147        65     -9.16
         2       147        64     -9.16
         2       148        65     -9.16
         2       149        65    -13.41
         2       149        64    -13.41
         2       150        65    -13.41
         2       171        45     -3.15
         2       170        45     -3.15
         2       172        45     -3.15
         2       171        46     -3.15
         2       171        44     -3.15
         2       174        49     -3.53
         2       173        49     -3.53
         2       175        49     -3.53
         2       174        50     -3.53
         2       174        48     -3.53
         2       172        54         0
         2       171        54         0
         2       173        54         0
         2       172        55         0
         2       172        53         0
         2       138        70     -5.34
         2       134        70     -5.34
         2       135        70     -5.34
         2       136        70     -5.34
         2       137        70     -5.34
         2       138        71     -5.34
         2       138        72     -5.34
         2       138        69     -5.34
         2       139        70     -5.34
         2        66       102      -5.2
        31         0 # stress period 21
         2       147        65     -5.56
         2       147        64     -5.56
         2       148        65     -5.56
         2       149        65    -16.39
         2       149        64    -16.39
         2       150        65    -16.39
         2       171        45     -2.44
         2       170        45     -2.44
         2       172        45     -2.44
         2       171        46     -2.44
         2       171        44     -2.44
         2       174        49     -3.82
         2       173        49     -3.82
         2       175        49     -3.82
         2       174        50     -3.82
         2       174        48     -3.82
         2       172        54         0
         2       171        54         0
         2       173        54         0
         2       172        55         0
         2       172        53         0
         2       138        70     -5.45
         2       134        70     -5.45
         2       135        70     -5.45
         2       136        70     -5.45
         2       137        70     -5.45
         2       138        71     -5.45
         2       138        72     -5.45
         2       138        69     -5.45
         2       139        70     -5.45
         2        66       102      -5.2
        31         0 # stress period 22
         2       147        65     -4.54
         2       147        64     -4.54
         2       148        65     -4.54
         2       149        65     -18.5
         2       149        64     -18.5
         2       150        65     -18.5
         2       171        45      -3.8
         2       170        45      -3.8
         2       172        45      -3.8
         2       171        46      -3.8
         2       171        44      -3.8
         2       174        49     -3.72
         2       173        49     -3.72
         2       175        49     -3.72
         2       174        50     -3.72
         2       174        48     -3.72
         2       172        54         0
         2       171        54         0
         2       173        54         0
         2       172        55         0
         2       172        53         0
         2       138        70      -4.3
         2       134        70      -4.3
         2       135        70      -4.3
         2       136        70      -4.3
         2       137        70      -4.3
         2       138        71      -4.3
         2       138        72      -4.3
         2       138        69      -4.3
         2       139        70      -4.3
         2        66       102      -5.2
        31         0 # stress period 23
         2       147        65     -9.15
         2       147        64     -9.15
         2       148        65     -9.15
         2       149        65    -18.77
         2       149        64    -18.77
         2       150        65    -18.77
         2       171        45     -2.98
         2       170        45     -2.98
         2       172        45     -2.98
         2       171        46     -2.98
         2       171        44     -2.98
         2       174        49     -5.72
         2       173        49     -5.72
         2       175        49     -5.72
         2       174        50     -5.72
         2       174        48     -5.72
         2       172        54         0
         2       171        54         0
         2       173        54         0
         2       172        55         0
         2       172        53         0
         2       138        70     -2.11
         2       134        70     -2.11
         2       135        70     -2.11
         2       136        70     -2.11