# HOB package for MODFLOW-NWT generated by Flopy 3.3.5
     18237         0         0       600         0
         1
LRR0061                 1        165         62       -891                  0.0     0.0000     0.0000     0.0000   # DATASET 3 - Observation 1
         1                                                                                                         # DATASET 5 - Observation 1
LRR0061.1               2                  0.0    37.6142                                                          # DATASET 6 - Observation 1.1
LRR0061.2               3                  0.0    35.8754                                                          # DATASET 6 - Observation 1.2
LRR0061.3               4                  0.0    35.2687                                                          # DATASET 6 - Observation 1.3
LRR0061.4               5                  0.0    35.2229                                                          # DATASET 6 - Observation 1.4
LRR0061.5               6                  0.0    35.1583                                                          # DATASET 6 - Observation 1.5
LRR0061.6               7                  0.0    35.0875                                                          # DATASET 6 - Observation 1.6
LRR0061.7               8                  0.0    35.1237                                                          # DATASET 6 - Observation 1.7
LRR0061.8               9                  0.0    35.2717                                                          # DATASET 6 - Observation 1.8
LRR0061.9              10                  0.0    35.2837                                                          # DATASET 6 - Observation 1.9
LRR0061.10             11                  0.0    35.2713                                                          # DATASET 6 - Observation 1.10
LRR0061.11             12                  0.0    35.3496                                                          # DATASET 6 - Observation 1.11
LRR0061.12             13                  0.0    35.3517                                                          # DATASET 6 - Observation 1.12
LRR0061.13             14                  0.0    35.2900                                                          # DATASET 6 - Observation 1.13
LRR0061.14             15                  0.0    35.1233                                                          # DATASET 6 - Observation 1.14
LRR0061.15             16                  0.0    34.9750                                                          # DATASET 6 - Observation 1.15
LRR0061.16             17                  0.0    34.8396                                                          # DATASET 6 - Observation 1.16
LRR0061.17             18                  0.0    34.6696                                                          # DATASET 6 - Observation 1.17
LRR0061.18             19                  0.0    34.5050                                                          # DATASET 6 - Observation 1.18
LRR0061.19             20                  0.0    34.4087                                                          # DATASET 6 - Observation 1.19
LRR0061.20             21                  0.0    34.2658                                                          # DATASET 6 - Observation 1.20
LRR0061.21             22                  0.0    34.1525                                                          # DATASET 6 - Observation 1.21
LRR0061.22             23                  0.0    34.0788                                                          # DATASET 6 - Observation 1.22
LRR0061.23             24                  0.0    34.1671                                                          # DATASET 6 - Observation 1.23
LRR0061.24             25                  0.0    34.2742                                                          # DATASET 6 - Observation 1.24
LRR0061.25             26                  0.0    34.3600                                                          # DATASET 6 - Observation 1.25
LRR0061.26             27                  0.0    34.4221                                                          # DATASET 6 - Observation 1.26
LRR0061.27             28                  0.0    34.3408                                                          # DATASET 6 - Observation 1.27
LRR0061.28             29                  0.0    34.3213                                                          # DATASET 6 - Observation 1.28
LRR0061.29             30                  0.0    34.3796                                                          # DATASET 6 - Observation 1.29
LRR0061.30             31                  0.0    34.4300                                                          # DATASET 6 - Observation 1.30
LRR0061.31             32                  0.0    34.4146                                                          # DATASET 6 - Observation 1.31
LRR0061.32             33                  0.0    34.3542                                                          # DATASET 6 - Observation 1.32
LRR0061.33             34                  0.0    34.4129                                                          # DATASET 6 - Observation 1.33
LRR0061.34             35                  0.0    34.3721                                                          # DATASET 6 - Observation 1.34
LRR0061.35             36                  0.0    34.2825                                                          # DATASET 6 - Observation 1.35
LRR0061.36             37                  0.0    34.2846                                                          # DATASET 6 - Observation 1.36
LRR0061.37             38                  0.0    34.4267                                                          # DATASET 6 - Observation 1.37
LRR0061.38             39                  0.0    34.7500                                                          # DATASET 6 - Observation 1.38
LRR0061.39             40                  0.0    36.5267                                                          # DATASET 6 - Observation 1.39
LRR0061.40             41                  0.0    39.6996                                                          # DATASET 6 - Observation 1.40
LRR0061.41             42                  0.0    40.0225                                                          # DATASET 6 - Observation 1.41
LRR0061.42             43                  0.0    38.3733                                                          # DATASET 6 - Observation 1.42
LRR0061.43             44                  0.0    36.5958                                                          # DATASET 6 - Observation 1.43
LRR0061.44             45                  0.0    35.2408                                                          # DATASET 6 - Observation 1.44
LRR0061.45             46                  0.0    34.2592                                                          # DATASET 6 - Observation 1.45
LRR0061.46             47                  0.0    33.5458                                                          # DATASET 6 - Observation 1.46
LRR0061.47             48                  0.0    33.0508                                                          # DATASET 6 - Observation 1.47
LRR0061.48             49                  0.0    32.6758                                                          # DATASET 6 - Observation 1.48
LRR0061.49             50                  0.0    32.3100                                                          # DATASET 6 - Observation 1.49
LRR0061.50             51                  0.0    32.0687                                                          # DATASET 6 - Observation 1.50
LRR0061.51             52                  0.0    31.8346                                                          # DATASET 6 - Observation 1.51
LRR0061.52             53                  0.0    31.6246                                                          # DATASET 6 - Observation 1.52
LRR0061.53             54                  0.0    31.4492                                                          # DATASET 6 - Observation 1.53
LRR0061.54             55                  0.0    31.3275                                                          # DATASET 6 - Observation 1.54
LRR0061.55             56                  0.0    31.2237                                                          # DATASET 6 - Observation 1.55
LRR0061.56             57                  0.0    31.1442                                                          # DATASET 6 - Observation 1.56
LRR0061.57             58                  0.0    32.1263                                                          # DATASET 6 - Observation 1.57
LRR0061.58             59                  0.0    33.4538                                                          # DATASET 6 - Observation 1.58
LRR0061.59             60                  0.0    34.8242                                                          # DATASET 6 - Observation 1.59
LRR0061.60             61                  0.0    35.2508                                                          # DATASET 6 - Observation 1.60
LRR0061.61             62                  0.0    34.5896                                                          # DATASET 6 - Observation 1.61
LRR0061.62             63                  0.0    34.8558                                                          # DATASET 6 - Observation 1.62
LRR0061.63             64                  0.0    36.5350                                                          # DATASET 6 - Observation 1.63
LRR0061.64             65                  0.0    36.2058                                                          # DATASET 6 - Observation 1.64
LRR0061.65             66                  0.0    36.3363                                                          # DATASET 6 - Observation 1.65
LRR0061.66             67                  0.0    35.6550                                                          # DATASET 6 - Observation 1.66
LRR0061.67             68                  0.0    34.8417                                                          # DATASET 6 - Observation 1.67
LRR0061.68             69                  0.0    34.0700                                                          # DATASET 6 - Observation 1.68
LRR0061.69             70                  0.0    33.0433                                                          # DATASET 6 - Observation 1.69
LRR0061.70             71                  0.0    33.1046                                                          # DATASET 6 - Observation 1.70
LRR0061.71             72                  0.0    32.9004                                                          # DATASET 6 - Observation 1.71
LRR0061.72             73                  0.0    32.6092                                                          # DATASET 6 - Observation 1.72
LRR0061.73             74                  0.0    32.2696                                                          # DATASET 6 - Observation 1.73
LRR0061.74             75                  0.0    31.9483                                                          # DATASET 6 - Observation 1.74
LRR0061.75             76                  0.0    31.7621                                                          # DATASET 6 - Observation 1.75
LRR0061.76             77                  0.0    31.6429                                                          # DATASET 6 - Observation 1.76
LRR0061.77             78                  0.0    31.5392                                                          # DATASET 6 - Observation 1.77
LRR0061.78             79                  0.0    31.4717                                                          # DATASET 6 - Observation 1.78
LRR0061.79             80                  0.0    31.3742                                                          # DATASET 6 - Observation 1.79
LRR0061.80             81                  0.0    31.2337                                                          # DATASET 6 - Observation 1.80
LRR0061.81             82                  0.0    31.1433                                                          # DATASET 6 - Observation 1.81
LRR0061.82             83                  0.0    31.0454                                                          # DATASET 6 - Observation 1.82
LRR0061.83             84                  0.0    30.9908                                                          # DATASET 6 - Observation 1.83
LRR0061.84             85                  0.0    30.9354                                                          # DATASET 6 - Observation 1.84
LRR0061.85             86                  0.0    31.0221                                                          # DATASET 6 - Observation 1.85
LRR0061.86             87                  0.0    31.1108                                                          # DATASET 6 - Observation 1.86
LRR0061.87             88                  0.0    31.2167                                                          # DATASET 6 - Observation 1.87
LRR0061.88             89                  0.0    33.1479                                                          # DATASET 6 - Observation 1.88
LRR0061.89             90                  0.0    33.8808                                                          # DATASET 6 - Observation 1.89
LRR0061.90             91                  0.0    34.3904                                                          # DATASET 6 - Observation 1.90
LRR0061.91             92                  0.0    35.8583                                                          # DATASET 6 - Observation 1.91
LRR0061.92             93                  0.0    36.3688                                                          # DATASET 6 - Observation 1.92
LRR0061.93             94                  0.0    35.7812                                                          # DATASET 6 - Observation 1.93
LRR0061.94             95                  0.0    35.1138                                                          # DATASET 6 - Observation 1.94
LRR0061.95             96                  0.0    34.5321                                                          # DATASET 6 - Observation 1.95
LRR0061.96             97                  0.0    34.0054                                                          # DATASET 6 - Observation 1.96
LRR0061.97             98                  0.0    33.5683                                                          # DATASET 6 - Observation 1.97
LRR0061.98             99                  0.0    33.2229                                                          # DATASET 6 - Observation 1.98
LRR0061.99            100                  0.0    32.8883                                                          # DATASET 6 - Observation 1.99
LRR0061.100           101                  0.0    32.5462                                                          # DATASET 6 - Observation 1.100
LRR0061.101           102                  0.0    32.3013                                                          # DATASET 6 - Observation 1.101
LRR0061.102           103                  0.0    32.1208                                                          # DATASET 6 - Observation 1.102
LRR0061.103           104                  0.0    31.9429                                                          # DATASET 6 - Observation 1.103
LRR0061.104           105                  0.0    31.7425                                                          # DATASET 6 - Observation 1.104
LRR0061.105           106                  0.0    31.6017                                                          # DATASET 6 - Observation 1.105
LRR0061.106           107                  0.0    31.4638                                                          # DATASET 6 - Observation 1.106
LRR0061.107           108                  0.0    31.3687                                                          # DATASET 6 - Observation 1.107
LRR0061.108           109                  0.0    31.2738                                                          # DATASET 6 - Observation 1.108
LRR0061.109           110                  0.0    31.1671                                                          # DATASET 6 - Observation 1.109
LRR0061.110           111                  0.0    31.0338                                                          # DATASET 6 - Observation 1.110
LRR0061.111           112                  0.0    30.9387                                                          # DATASET 6 - Observation 1.111
LRR0061.112           113                  0.0    30.8604                                                          # DATASET 6 - Observation 1.112
LRR0061.113           114                  0.0    30.7954                                                          # DATASET 6 - Observation 1.113
LRR0061.114           115                  0.0    30.7962                                                          # DATASET 6 - Observation 1.114
LRR0061.115           116                  0.0    30.8237                                                          # DATASET 6 - Observation 1.115
LRR0061.116           117                  0.0    30.8113                                                          # DATASET 6 - Observation 1.116
LRR0061.117           118                  0.0    30.7708                                                          # DATASET 6 - Observation 1.117
LRR0061.118           119                  0.0    30.6942                                                          # DATASET 6 - Observation 1.118
LRR0061.119           120                  0.0    30.5904                                                          # DATASET 6 - Observation 1.119
LRR0061.120           121                  0.0    30.4904                                                          # DATASET 6 - Observation 1.120
LRR0061.121           122                  0.0    30.4071                                                          # DATASET 6 - Observation 1.121
LRR0061.122           123                  0.0    30.3542                                                          # DATASET 6 - Observation 1.122
LRR0061.123           124                  0.0    30.2738                                                          # DATASET 6 - Observation 1.123
LRR0061.124           125                  0.0    30.1867                                                          # DATASET 6 - Observation 1.124
LRR0061.125           126                  0.0    30.1437                                                          # DATASET 6 - Observation 1.125
LRR0061.126           127                  0.0    30.1196                                                          # DATASET 6 - Observation 1.126
LRR0061.127           128                  0.0    30.0438                                                          # DATASET 6 - Observation 1.127
LRR0061.128           129                  0.0    29.9500                                                          # DATASET 6 - Observation 1.128
LRR0061.129           130                  0.0    29.8683                                                          # DATASET 6 - Observation 1.129
LRR0061.130           131                  0.0    29.8917                                                          # DATASET 6 - Observation 1.130
LRR0061.131           132                  0.0    29.9317                                                          # DATASET 6 - Observation 1.131
LRR0061.132           133                  0.0    29.9525                                                          # DATASET 6 - Observation 1.132
LRR0061.133           134                  0.0    29.8879                                                          # DATASET 6 - Observation 1.133
LRR0061.134           135                  0.0    29.8346                                                          # DATASET 6 - Observation 1.134
LRR0061.135           136                  0.0    29.8139                                                          # DATASET 6 - Observation 1.135
LRR0061.136           137                  0.0    29.8062                                                          # DATASET 6 - Observation 1.136
LRR0061.137           138                  0.0    29.7612                                                          # DATASET 6 - Observation 1.137
LRR0061.138           139                  0.0    29.7604                                                          # DATASET 6 - Observation 1.138
LRR0061.139           140                  0.0    29.7271                                                          # DATASET 6 - Observation 1.139
LRR0061.140           141                  0.0    29.6558                                                          # DATASET 6 - Observation 1.140
LRR0061.141           142                  0.0    29.9171                                                          # DATASET 6 - Observation 1.141
LRR0061.142           143                  0.0    30.3412                                                          # DATASET 6 - Observation 1.142
LRR0061.143           144                  0.0    30.6133                                                          # DATASET 6 - Observation 1.143
LRR0061.144           145                  0.0    30.9867                                                          # DATASET 6 - Observation 1.144
LRR0061.145           146                  0.0    31.1479                                                          # DATASET 6 - Observation 1.145
LRR0061.146           147                  0.0    31.1158                                                          # DATASET 6 - Observation 1.146
LRR0061.147           148                  0.0    30.9538                                                          # DATASET 6 - Observation 1.147
LRR0061.148           149                  0.0    30.8421                                                          # DATASET 6 - Observation 1.148
LRR0061.149           150                  0.0    30.8062                                                          # DATASET 6 - Observation 1.149
LRR0061.150           151                  0.0    30.7571                                                          # DATASET 6 - Observation 1.150
LRR0061.151           152                  0.0    30.7262                                                          # DATASET 6 - Observation 1.151
LRR0061.152           153                  0.0    30.6333                                                          # DATASET 6 - Observation 1.152
LRR0061.153           154                  0.0    30.6425                                                          # DATASET 6 - Observation 1.153
LRR0061.154           155                  0.0    30.9333                                                          # DATASET 6 - Observation 1.154
LRR0061.155           156                  0.0    31.3125                                                          # DATASET 6 - Observation 1.155
LRR0061.156           157                  0.0    31.6583                                                          # DATASET 6 - Observation 1.156
LRR0061.157           158                  0.0    32.1742                                                          # DATASET 6 - Observation 1.157
LRR0061.158           159                  0.0    32.7487                                                          # DATASET 6 - Observation 1.158
LRR0061.159           160                  0.0    33.0883                                                          # DATASET 6 - Observation 1.159
LRR0061.160           161                  0.0    33.2738                                                          # DATASET 6 - Observation 1.160
LRR0061.161           162                  0.0    33.4296                                                          # DATASET 6 - Observation 1.161
LRR0061.162           163                  0.0    33.5708                                                          # DATASET 6 - Observation 1.162
LRR0061.163           164                  0.0    33.6504                                                          # DATASET 6 - Observation 1.163
LRR0061.164           165                  0.0    33.6067                                                          # DATASET 6 - Observation 1.164
LRR0061.165           166                  0.0    33.5417                                                          # DATASET 6 - Observation 1.165
LRR0061.166           167                  0.0    33.4758                                                          # DATASET 6 - Observation 1.166
LRR0061.167           168                  0.0    33.4521                                                          # DATASET 6 - Observation 1.167
LRR0061.168           169                  0.0    33.6271                                                          # DATASET 6 - Observation 1.168
LRR0061.169           170                  0.0    33.8321                                                          # DATASET 6 - Observation 1.169
LRR0061.170           171                  0.0    34.0550                                                          # DATASET 6 - Observation 1.170
LRR0061.171           172                  0.0    34.3046                                                          # DATASET 6 - Observation 1.171
LRR0061.172           173                  0.0    34.5417                                                          # DATASET 6 - Observation 1.172
LRR0061.173           174                  0.0    34.6425                                                          # DATASET 6 - Observation 1.173
LRR0061.174           175                  0.0    34.0938                                                          # DATASET 6 - Observation 1.174
LRR0061.175           176                  0.0    34.5838                                                          # DATASET 6 - Observation 1.175
LRR0061.176           177                  0.0    34.7962                                                          # DATASET 6 - Observation 1.176
LRR0061.177           178                  0.0    34.9562                                                          # DATASET 6 - Observation 1.177
LRR0061.178           179                  0.0    35.0204                                                          # DATASET 6 - Observation 1.178
LRR0061.179           180                  0.0    35.1304                                                          # DATASET 6 - Observation 1.179
LRR0061.180           181                  0.0    35.2104                                                          # DATASET 6 - Observation 1.180
LRR0061.181           182                  0.0    35.2108                                                          # DATASET 6 - Observation 1.181
LRR0061.182           183                  0.0    35.1629                                                          # DATASET 6 - Observation 1.182
LRR0061.183           184                  0.0    35.1392                                                          # DATASET 6 - Observation 1.183
LRR0061.184           185                  0.0    35.1263                                                          # DATASET 6 - Observation 1.184
LRR0061.185           186                  0.0    35.1842                                                          # DATASET 6 - Observation 1.185
LRR0061.186           187                  0.0    35.2675                                                          # DATASET 6 - Observation 1.186
LRR0061.187           188                  0.0    35.3842                                                          # DATASET 6 - Observation 1.187
LRR0061.188           189                  0.0    35.5379                                                          # DATASET 6 - Observation 1.188
LRR0061.189           190                  0.0    35.8096                                                          # DATASET 6 - Observation 1.189
LRR0061.190           191                  0.0    36.1083                                                          # DATASET 6 - Observation 1.190
LRR0061.191           192                  0.0    36.3054                                                          # DATASET 6 - Observation 1.191
LRR0061.192           193                  0.0    36.5396                                                          # DATASET 6 - Observation 1.192
LRR0061.193           194                  0.0    36.7821                                                          # DATASET 6 - Observation 1.193
LRR0061.194           195                  0.0    36.9775                                                          # DATASET 6 - Observation 1.194
LRR0061.195           196                  0.0    37.1333                                                          # DATASET 6 - Observation 1.195
LRR0061.196           197                  0.0    36.3550                                                          # DATASET 6 - Observation 1.196
LRR0061.197           198                  0.0    35.2408                                                          # DATASET 6 - Observation 1.197
LRR0061.198           199                  0.0    34.6979                                                          # DATASET 6 - Observation 1.198
LRR0061.199           200                  0.0    34.4212                                                          # DATASET 6 - Observation 1.199
LRR0061.200           201                  0.0    34.1575                                                          # DATASET 6 - Observation 1.200
LRR0061.201           202                  0.0    33.9388                                                          # DATASET 6 - Observation 1.201
LRR0061.202           203                  0.0    33.6967                                                          # DATASET 6 - Observation 1.202