# DRN package for MODFLOW-NWT generated by Flopy 3.3.5
      7749         0
      7749         0 # stress period 1
         1         1        68           187.8   1.1574074e-05
         1         1        69           152.5   1.1574074e-05
         1         1        70           115.0   1.1574074e-05
         1         1        71            94.7   1.1574074e-05
         1         1        72            92.7   1.1574074e-05
         1         1        73            91.8   1.1574074e-05
         1         1        74            92.8   1.1574074e-05
         1         1        75            92.0   1.1574074e-05
         1         1        76            88.3   1.1574074e-05
         1         1        77            91.8   1.1574074e-05
         1         1        78            92.4   1.1574074e-05
         1         1        79            92.2   1.1574074e-05
         1         1        80            90.2   1.1574074e-05
         1         1        81            71.7   1.1574074e-05
         1         1        82            66.9   1.1574074e-05
         1         1        83            67.0   1.1574074e-05
         1         1        84            71.2   1.1574074e-05
         1         1        85            91.4   1.1574074e-05
         1         1        86            88.0   1.1574074e-05
         1         1        87            86.8   1.1574074e-05
         1         1        88            87.1   1.1574074e-05
         1         1        89            90.2   1.1574074e-05
         1         1        90            87.3   1.1574074e-05
         1         1        91            67.0   1.1574074e-05
         1         1        92            86.4   1.1574074e-05
         1         1        93            88.9   1.1574074e-05
         1         1        94            90.3   1.1574074e-05
         1         1        95            91.4   1.1574074e-05
         1         1        96            90.4   1.1574074e-05
         1         1        97            90.8   1.1574074e-05
         1         1        98            89.7   1.1574074e-05
         1         1        99            90.2   1.1574074e-05
         1         1       100            90.4   1.1574074e-05
         1         1       101            59.2   1.1574074e-05
         1         1       102            59.3   1.1574074e-05
         1         1       103            68.0   1.1574074e-05
         1         1       104            70.2   1.1574074e-05
         1         1       105            82.9   1.1574074e-05
         1         1       106            90.1   1.1574074e-05
         1         1       107           110.5   1.1574074e-05
         1         1       108           108.3   1.1574074e-05
         1         1       109           105.6   1.1574074e-05
         1         1       110           105.4   1.1574074e-05
         1         1       111           105.5   1.1574074e-05
         1         1       112           106.9   1.1574074e-05
         1         1       113           108.7   1.1574074e-05
         1         1       114           109.8   1.1574074e-05
         1         1       115           111.3   1.1574074e-05
         1         1       116           107.2   1.1574074e-05
         1         1       117           108.9   1.1574074e-05
         1         1       118           111.1   1.1574074e-05
         1         1       119           106.1   1.1574074e-05
         1         1       120           103.9   1.1574074e-05
         1         1       121           113.6   1.1574074e-05
         1         1       122           115.3   1.1574074e-05
         1         1       123           117.1   1.1574074e-05
         1         1       124           117.9   1.1574074e-05
         1         1       125           120.7   1.1574074e-05
         1         2        69           155.0   1.1574074e-05
         1         2        70           123.3   1.1574074e-05
         1         2        76            88.6   1.1574074e-05
         1         2        79            91.6   1.1574074e-05
         1         2        80            92.2   1.1574074e-05
         1         2        81            90.8   1.1574074e-05
         1         2        82            67.1   1.1574074e-05
         1         2        84            68.7   1.1574074e-05
         1         2        85            71.7   1.1574074e-05
         1         2        86            90.3   1.1574074e-05
         1         2        87            88.0   1.1574074e-05
         1         2        88            87.7   1.1574074e-05
         1         2        89            86.2   1.1574074e-05
         1         2        90            69.5   1.1574074e-05
         1         2        92            69.6   1.1574074e-05
         1         2        93            80.3   1.1574074e-05
         1         2        94            89.0   1.1574074e-05
         1         2        95            90.8   1.1574074e-05
         1         2        96            90.8   1.1574074e-05
         1         2        97            90.0   1.1574074e-05
         1         2        98            89.9   1.1574074e-05
         1         2        99            91.2   1.1574074e-05
         1         2       100            91.8   1.1574074e-05
         1         2       102            60.8   1.1574074e-05
         1         2       103            68.5   1.1574074e-05
         1         2       104            73.9   1.1574074e-05
         1         2       105            82.6   1.1574074e-05
         1         2       106            90.1   1.1574074e-05
         1         2       107           107.0   1.1574074e-05
         1         2       108           101.2   1.1574074e-05
         1         2       109           100.5   1.1574074e-05
         1         2       110           103.8   1.1574074e-05
         1         2       111           105.2   1.1574074e-05
         1         2       112           108.3   1.1574074e-05
         1         2       113           107.6   1.1574074e-05
         1         2       114           107.8   1.1574074e-05
         1         2       115           109.3   1.1574074e-05
         1         2       116           109.6   1.1574074e-05
         1         2       117           109.1   1.1574074e-05
         1         2       120           112.3   1.1574074e-05
         1         2       121           113.6   1.1574074e-05
         1         2       122           114.9   1.1574074e-05
         1         2       123           115.5   1.1574074e-05
         1         2       124           116.8   1.1574074e-05
         1         2       125           123.2   1.1574074e-05
         1         2       126           123.1   1.1574074e-05
         1         3        67           167.7   1.1574074e-05
         1         3        70           107.4   1.1574074e-05
         1         3        72            92.6   1.1574074e-05
         1         3        73            93.1   1.1574074e-05
         1         3        74            92.8   1.1574074e-05
         1         3        75            88.9   1.1574074e-05
         1         3        77            91.7   1.1574074e-05
         1         3        80            90.8   1.1574074e-05
         1         3        81            90.9   1.1574074e-05
         1         3        82            89.2   1.1574074e-05
         1         3        85            67.1   1.1574074e-05
         1         3        86            65.7   1.1574074e-05
         1         3        87            66.5   1.1574074e-05
         1         3        88            72.7   1.1574074e-05
         1         3        89            70.1   1.1574074e-05
         1         3        90            64.1   1.1574074e-05
         1         3        93            64.7   1.1574074e-05
         1         3        94            66.8   1.1574074e-05
         1         3        95            89.3   1.1574074e-05
         1         3        96            89.7   1.1574074e-05
         1         3        97            89.9   1.1574074e-05
         1         3        98            90.4   1.1574074e-05
         1         3        99            90.8   1.1574074e-05
         1         3       100            81.7   1.1574074e-05
         1         3       102            67.5   1.1574074e-05
         1         3       103            68.6   1.1574074e-05
         1         3       104            73.0   1.1574074e-05
         1         3       105            81.7   1.1574074e-05
         1         3       106            89.5   1.1574074e-05
         1         3       107           104.9   1.1574074e-05
         1         3       108            95.2   1.1574074e-05
         1         3       109            95.4   1.1574074e-05
         1         3       110           104.5   1.1574074e-05
         1         3       111           106.0   1.1574074e-05
         1         3       112           106.7   1.1574074e-05
         1         3       113           106.3   1.1574074e-05
         1         3       114           107.2   1.1574074e-05
         1         3       115           107.8   1.1574074e-05
         1         3       116           108.1   1.1574074e-05
         1         3       119           109.9   1.1574074e-05
         1         3       120           111.2   1.1574074e-05
         1         3       121           111.7   1.1574074e-05
         1         3       122           113.2   1.1574074e-05
         1         3       123           114.6   1.1574074e-05
         1         3       124           116.0   1.1574074e-05
         1         3       125           118.7   1.1574074e-05
         1         3       126           120.4   1.1574074e-05
         1         4        67           164.5   1.1574074e-05
         1         4        68           143.6   1.1574074e-05
         1         4        72            93.7   1.1574074e-05
         1         4        73            93.4   1.1574074e-05
         1         4        74            93.5   1.1574074e-05
         1         4        75            93.1   1.1574074e-05
         1         4        76            92.4   1.1574074e-05
         1         4        77            92.4   1.1574074e-05
         1         4        78            92.2   1.1574074e-05
         1         4        81            90.6   1.1574074e-05
         1         4        82            92.2   1.1574074e-05
         1         4        83            88.7   1.1574074e-05
         1         4        95            62.8   1.1574074e-05
         1         4        96            87.9   1.1574074e-05
         1         4        97            89.1   1.1574074e-05
         1         4        98            89.5   1.1574074e-05
         1         4        99            90.1   1.1574074e-05
         1         4       100            76.6   1.1574074e-05
         1         4       102            66.1   1.1574074e-05
         1         4       103            64.5   1.1574074e-05
         1         4       104            74.2   1.1574074e-05
         1         4       105            80.6   1.1574074e-05
         1         4       106            88.9   1.1574074e-05
         1         4       107            94.2   1.1574074e-05
         1         4       108            90.2   1.1574074e-05
         1         4       109            94.7   1.1574074e-05
         1         4       110           103.3   1.1574074e-05
         1         4       111           104.7   1.1574074e-05
         1         4       112           104.9   1.1574074e-05
         1         4       113           105.1   1.1574074e-05
         1         4       114           105.7   1.1574074e-05
         1         4       115           106.5   1.1574074e-05
         1         4       116           106.4   1.1574074e-05
         1         4       118           107.7   1.1574074e-05
         1         4       119           109.0   1.1574074e-05
         1         4       120           109.8   1.1574074e-05
         1         4       121           109.1   1.1574074e-05
         1         4       122           112.4   1.1574074e-05
         1         4       123           114.3   1.1574074e-05
         1         4       124           116.0   1.1574074e-05
         1         4       125           117.6   1.1574074e-05
         1         4       126           119.7   1.1574074e-05
         1         5        67           126.8   1.1574074e-05
         1         5        68           126.8   1.1574074e-05
         1         5        69           112.7   1.1574074e-05
         1         5        71            95.2   1.1574074e-05
         1         5        72            94.2   1.1574074e-05
         1         5        73            94.0   1.1574074e-05
         1         5        74            94.0   1.1574074e-05
         1         5        75            93.5   1.1574074e-05
         1         5        76            93.5   1.1574074e-05
         1         5        77            93.1   1.1574074e-05
         1         5        78            92.7   1.1574074e-05
         1         5        79            92.1   1.1574074e-05
         1         5        82            90.8   1.1574074e-05
         1         5        83            87.6   1.1574074e-05
         1         5        86            76.1   1.1574074e-05
         1         5        87            71.4   1.1574074e-05
         1         5        88            72.2   1.1574074e-05
         1         5        89            90.4   1.1574074e-05
         1         5        90            82.6   1.1574074e-05
         1         5        91            77.4   1.1574074e-05
         1         5        92            75.6   1.1574074e-05
         1         5        93            63.3   1.1574074e-05
         1         5        95            62.5   1.1574074e-05
         1         5        96            80.9   1.1574074e-05
         1         5        97            89.3   1.1574074e-05
         1         5        98            89.3   1.1574074e-05
         1         5        99            89.4   1.1574074e-05
         1         5       100            59.4   1.1574074e-05
         1         5       102            62.2   1.1574074e-05
         1         5       103            64.3   1.1574074e-05
         1         5       104            78.4   1.1574074e-05
         1         5       105            80.7   1.1574074e-05
         1         5       106            88.5   1.1574074e-05
         1         5       107            86.2   1.1574074e-05
         1         5       108            89.8   1.1574074e-05
         1         5       109            97.0   1.1574074e-05
         1         5       110           102.2   1.1574074e-05
         1         5       111           103.5   1.1574074e-05
         1         5       112           103.4   1.1574074e-05
         1         5       113           103.6   1.1574074e-05
         1         5       114           104.4   1.1574074e-05
         1         5       115           104.1   1.1574074e-05
         1         5       118           105.3   1.1574074e-05
         1         5       119           108.5   1.1574074e-05
         1         5       120           108.8   1.1574074e-05
         1         5       121           108.5   1.1574074e-05
         1         5       122           111.6   1.1574074e-05
         1         5       123           113.9   1.1574074e-05
         1         5       124           117.1   1.1574074e-05
         1         5       125           119.2   1.1574074e-05
         1         5       126           120.9   1.1574074e-05
         1         6        71            95.4   1.1574074e-05
         1         6        72            94.7   1.1574074e-05
         1         6        73            94.8   1.1574074e-05
         1         6        74            95.0   1.1574074e-05
         1         6        75            94.7   1.1574074e-05
         1         6        76            94.7   1.1574074e-05
         1         6        77            93.3   1.1574074e-05
         1         6        78            93.2   1.1574074e-05
         1         6        79            93.1   1.1574074e-05
         1         6        80            84.2   1.1574074e-05
         1         6        83            85.6   1.1574074e-05
         1         6        85            81.5   1.1574074e-05
         1         6        86            90.0   1.1574074e-05
         1         6        87            89.8   1.1574074e-05
         1         6        88            90.4   1.1574074e-05
         1         6        89            89.8   1.1574074e-05
         1         6        90            88.4   1.1574074e-05
         1         6        91            82.7   1.1574074e-05
         1         6        92            81.5   1.1574074e-05
         1         6        93            81.2   1.1574074e-05
         1         6        96            62.4   1.1574074e-05
         1         6        97            71.1   1.1574074e-05
         1         6        98            83.8   1.1574074e-05
         1         6        99            86.3   1.1574074e-05
         1         6       100            59.3   1.1574074e-05
         1         6       102            61.6   1.1574074e-05
         1         6       103            66.9   1.1574074e-05
         1         6       104            78.6   1.1574074e-05
         1         6       105            81.8   1.1574074e-05
         1         6       106            88.8   1.1574074e-05
         1         6       107            87.3   1.1574074e-05
         1         6       108            88.3   1.1574074e-05
         1         6       109            99.0   1.1574074e-05
         1         6       110           102.0   1.1574074e-05
         1         6       111           102.6   1.1574074e-05
         1         6       112           102.5   1.1574074e-05
         1         6       113           101.8   1.1574074e-05
         1         6       114           100.6   1.1574074e-05
         1         6       117           103.4   1.1574074e-05
         1         6       118           105.4   1.1574074e-05
         1         6       119           106.7   1.1574074e-05
         1         6       120           107.0   1.1574074e-05
         1         6       121           107.8   1.1574074e-05
         1         6       122           110.3   1.1574074e-05
         1         6       123           114.2   1.1574074e-05
         1         6       124           114.2   1.1574074e-05
         1         6       125           108.5   1.1574074e-05
         1         6       126           109.0   1.1574074e-05
         1         7        67           111.2   1.1574074e-05
         1         7        68           103.1   1.1574074e-05
         1         7        69           101.0   1.1574074e-05
         1         7        70            97.0   1.1574074e-05
         1         7        71            95.8   1.1574074e-05
         1         7        72            95.2   1.1574074e-05
         1         7        73            95.3   1.1574074e-05
         1         7        74            95.8   1.1574074e-05
         1         7        75            96.0   1.1574074e-05
         1         7        76            95.4   1.1574074e-05
         1         7        77            95.6   1.1574074e-05
         1         7        78            94.8   1.1574074e-05
         1         7        79            93.9   1.1574074e-05
         1         7        80            92.0   1.1574074e-05
         1         7        81            83.4   1.1574074e-05
         1         7        85            90.7   1.1574074e-05
         1         7        86            89.5   1.1574074e-05
         1         7        87            89.4   1.1574074e-05
         1         7        88            89.0   1.1574074e-05
         1         7        89            89.6   1.1574074e-05
         1         7        90            89.5   1.1574074e-05
         1         7        91            89.3   1.1574074e-05
         1         7        92            83.1   1.1574074e-05
         1         7        93            80.8   1.1574074e-05
         1         7        94            79.3   1.1574074e-05
         1         7        98            64.8   1.1574074e-05
         1         7        99            74.8   1.1574074e-05
         1         7       102            62.3   1.1574074e-05
         1         7       103            68.0   1.1574074e-05
         1         7       104            74.8   1.1574074e-05
         1         7       105            82.9   1.1574074e-05
         1         7       106            87.9   1.1574074e-05
         1         7       107            86.5   1.1574074e-05
         1         7       108            86.1   1.1574074e-05
         1         7       109            94.9   1.1574074e-05
         1         7       110            98.0   1.1574074e-05
         1         7       111            99.6   1.1574074e-05
         1         7       112            99.9   1.1574074e-05
         1         7       113            98.2   1.1574074e-05
         1         7       116           100.6   1.1574074e-05
         1         7       117           102.7   1.1574074e-05
         1         7       118           104.6   1.1574074e-05
         1         7       119           106.1   1.1574074e-05
         1         7       120           106.8   1.1574074e-05
         1         7       121           108.3   1.1574074e-05
         1         7       122           109.1   1.1574074e-05
         1         7       123           107.8   1.1574074e-05
         1         7       124           106.7   1.1574074e-05
         1         7       125           106.5   1.1574074e-05
         1         7       126           111.8   1.1574074e-05
         1         8        67           130.6   1.1574074e-05
         1         8        68           108.8   1.1574074e-05
         1         8        69           108.4   1.1574074e-05
         1         8        70            97.8   1.1574074e-05
         1         8        71            96.4   1.1574074e-05
         1         8        72            95.9   1.1574074e-05
         1         8        73            96.0   1.1574074e-05
         1         8        74            96.8   1.1574074e-05
         1         8        75            96.9   1.1574074e-05
         1         8        76            96.4   1.1574074e-05
         1         8        77            96.7   1.1574074e-05
         1         8        78            96.3   1.1574074e-05
         1         8        79            94.9   1.1574074e-05
         1         8        80            86.2   1.1574074e-05
         1         8        84            82.4   1.1574074e-05
         1         8        85            90.8   1.1574074e-05
         1         8        86            89.9   1.1574074e-05
         1         8        87            89.1   1.1574074e-05
         1         8        88            88.0   1.1574074e-05
         1         8        89            87.8   1.1574074e-05
         1         8        90            89.0   1.1574074e-05
         1         8        91            88.9   1.1574074e-05
         1         8        92            90.5   1.1574074e-05
         1         8        93            88.3   1.1574074e-05
         1         8        94            88.3   1.1574074e-05
         1         8        95            90.4   1.1574074e-05
         1         8        96            62.3   1.1574074e-05
         1         8        99            60.2   1.1574074e-05
         1         8       101            58.7   1.1574074e-05
         1         8       102            62.9   1.1574074e-05
         1         8       103            64.8   1.1574074e-05
         1         8       104            72.7   1.1574074e-05
         1         8       105            83.6   1.1574074e-05
         1         8       106            86.7   1.1574074e-05
         1         8       107            86.6   1.1574074e-05
         1         8       108            86.6   1.1574074e-05
         1         8       109            93.9   1.1574074e-05
         1         8       110            95.1   1.1574074e-05
         1         8       111            95.7   1.1574074e-05
         1         8       112            96.4   1.1574074e-05
         1         8       115            98.7   1.1574074e-05
         1         8       116           100.1   1.1574074e-05
         1         8       117           102.2   1.1574074e-05
         1         8       118           103.6   1.1574074e-05
         1         8       119           103.5   1.1574074e-05
         1         8       120           104.4   1.1574074e-05
         1         8       121           105.8   1.1574074e-05
         1         8       122           105.4   1.1574074e-05
         1         8       123           103.4   1.1574074e-05
         1         8       124           103.8   1.1574074e-05
         1         8       125           111.7   1.1574074e-05
         1         8       126           118.9   1.1574074e-05
         1         9        67           138.4   1.1574074e-05
         1         9        68           118.4   1.1574074e-05
         1         9        69           112.2   1.1574074e-05
         1         9        70           100.3   1.1574074e-05
         1         9        71            97.7   1.1574074e-05
         1         9        72            97.8   1.1574074e-05
         1         9        73            97.5   1.1574074e-05
         1         9        74            97.6   1.1574074e-05
         1         9        75            97.5   1.1574074e-05
         1         9        76            76.8   1.1574074e-05
         1         9        79            96.0   1.1574074e-05
         1         9        82            69.6   1.1574074e-05
         1         9        83            92.2   1.1574074e-05
         1         9        84            91.5   1.1574074e-05
         1         9        85            90.6   1.1574074e-05
         1         9        86            90.1   1.1574074e-05
         1         9        87            89.0   1.1574074e-05
         1         9        88            88.4   1.1574074e-05
         1         9        89            87.1   1.1574074e-05
         1         9        90            87.8   1.1574074e-05
         1         9        91            88.7   1.1574074e-05
         1         9        92            89.9   1.1574074e-05
         1         9        93            90.1   1.1574074e-05
         1         9        94            88.6   1.1574074e-05
         1         9        95            89.7   1.1574074e-05
         1         9        96            89.7   1.1574074e-05
         1         9        97            88.8   1.1574074e-05
         1         9        98            60.9   1.1574074e-05
         1         9       101            59.2   1.1574074e-05
         1         9       102            63.6   1.1574074e-05
         1         9       103            66.8   1.1574074e-05
         1         9       104            71.9   1.1574074e-05
         1         9       105            83.4   1.1574074e-05
         1         9       106            86.1   1.1574074e-05
         1         9       107            89.0   1.1574074e-05
         1         9       108            88.1   1.1574074e-05
         1         9       109            91.8   1.1574074e-05
         1         9       110            92.9   1.1574074e-05
         1         9       111            93.1   1.1574074e-05
         1         9       112            89.2   1.1574074e-05
         1         9       114            96.4   1.1574074e-05
         1         9       115            97.8   1.1574074e-05
         1         9       116            93.9   1.1574074e-05
         1         9       117            97.5   1.1574074e-05
         1         9       118            99.3   1.1574074e-05
         1         9       119           101.9   1.1574074e-05
         1         9       120           103.0   1.1574074e-05
         1         9       121           103.4   1.1574074e-05
         1         9       122           102.3   1.1574074e-05
         1         9       123           103.2   1.1574074e-05
         1         9       124           103.7   1.1574074e-05
         1         9       125           109.4   1.1574074e-05
         1         9       126           111.8   1.1574074e-05
         1        10        67           132.6   1.1574074e-05
         1        10        68           122.4   1.1574074e-05
         1        10        69           113.5   1.1574074e-05
         1        10        70           102.7   1.1574074e-05
         1        10        71           100.3   1.1574074e-05
         1        10        72            99.1   1.1574074e-05
         1        10        73            99.1   1.1574074e-05
         1        10        74            98.2   1.1574074e-05
         1        10        75            98.1   1.1574074e-05
         1        10        76            75.3   1.1574074e-05
         1        10        81            92.9   1.1574074e-05
         1        10        82            90.7   1.1574074e-05
         1        10        83            90.3   1.1574074e-05
         1        10        84            90.6   1.1574074e-05
         1        10        85            90.9   1.1574074e-05
         1        10        86            90.3   1.1574074e-05
         1        10        87            88.8   1.1574074e-05
         1        10        88            88.6   1.1574074e-05
         1        10        89            87.0   1.1574074e-05
         1        10        90            86.6   1.1574074e-05
         1        10        91            88.6   1.1574074e-05
         1        10        92            89.6   1.1574074e-05
         1        10        93            89.3   1.1574074e-05
         1        10        94            88.6   1.1574074e-05
         1        10        95            89.7   1.1574074e-05
         1        10        96            89.0   1.1574074e-05
         1        10        97            89.2   1.1574074e-05