# DRN package for MODFLOW-NWT generated by Flopy 3.3.5
      7749         0
      7749         0 # stress period 1
         1         1        68           192.8   1.1574074e-05
         1         1        69           157.5   1.1574074e-05
         1         1        70           120.0   1.1574074e-05
         1         1        71            99.7   1.1574074e-05
         1         1        72            97.7   1.1574074e-05
         1         1        73            96.8   1.1574074e-05
         1         1        74            97.8   1.1574074e-05
         1         1        75            97.0   1.1574074e-05
         1         1        76            93.3   1.1574074e-05
         1         1        77            96.8   1.1574074e-05
         1         1        78            97.4   1.1574074e-05
         1         1        79            97.2   1.1574074e-05
         1         1        80            95.2   1.1574074e-05
         1         1        81            76.7   1.1574074e-05
         1         1        82            71.9   1.1574074e-05
         1         1        83            72.0   1.1574074e-05
         1         1        84            76.2   1.1574074e-05
         1         1        85            96.4   1.1574074e-05
         1         1        86            93.0   1.1574074e-05
         1         1        87            91.8   1.1574074e-05
         1         1        88            92.1   1.1574074e-05
         1         1        89            95.2   1.1574074e-05
         1         1        90            92.3   1.1574074e-05
         1         1        91            72.0   1.1574074e-05
         1         1        92            91.4   1.1574074e-05
         1         1        93            93.9   1.1574074e-05
         1         1        94            95.3   1.1574074e-05
         1         1        95            96.4   1.1574074e-05
         1         1        96            95.4   1.1574074e-05
         1         1        97            95.8   1.1574074e-05
         1         1        98            94.7   1.1574074e-05
         1         1        99            95.2   1.1574074e-05
         1         1       100            95.4   1.1574074e-05
         1         1       101            64.2   1.1574074e-05
         1         1       102            64.3   1.1574074e-05
         1         1       103            73.0   1.1574074e-05
         1         1       104            75.2   1.1574074e-05
         1         1       105            87.9   1.1574074e-05
         1         1       106            95.1   1.1574074e-05
         1         1       107           115.5   1.1574074e-05
         1         1       108           113.3   1.1574074e-05
         1         1       109           110.6   1.1574074e-05
         1         1       110           110.4   1.1574074e-05
         1         1       111           110.5   1.1574074e-05
         1         1       112           111.9   1.1574074e-05
         1         1       113           113.7   1.1574074e-05
         1         1       114           114.8   1.1574074e-05
         1         1       115           116.3   1.1574074e-05
         1         1       116           112.2   1.1574074e-05
         1         1       117           113.9   1.1574074e-05
         1         1       118           116.1   1.1574074e-05
         1         1       119           111.1   1.1574074e-05
         1         1       120           108.9   1.1574074e-05
         1         1       121           118.6   1.1574074e-05
         1         1       122           120.3   1.1574074e-05
         1         1       123           122.1   1.1574074e-05
         1         1       124           122.9   1.1574074e-05
         1         1       125           125.7   1.1574074e-05
         1         2        69           160.0   1.1574074e-05
         1         2        70           128.3   1.1574074e-05
         1         2        76            93.6   1.1574074e-05
         1         2        79            96.6   1.1574074e-05
         1         2        80            97.2   1.1574074e-05
         1         2        81            95.8   1.1574074e-05
         1         2        82            72.1   1.1574074e-05
         1         2        84            73.7   1.1574074e-05
         1         2        85            76.7   1.1574074e-05
         1         2        86            95.3   1.1574074e-05
         1         2        87            93.0   1.1574074e-05
         1         2        88            92.7   1.1574074e-05
         1         2        89            91.2   1.1574074e-05
         1         2        90            74.5   1.1574074e-05
         1         2        92            74.6   1.1574074e-05
         1         2        93            85.3   1.1574074e-05
         1         2        94            94.0   1.1574074e-05
         1         2        95            95.8   1.1574074e-05
         1         2        96            95.8   1.1574074e-05
         1         2        97            95.0   1.1574074e-05
         1         2        98            94.9   1.1574074e-05
         1         2        99            96.2   1.1574074e-05
         1         2       100            96.8   1.1574074e-05
         1         2       102            65.8   1.1574074e-05
         1         2       103            73.5   1.1574074e-05
         1         2       104            78.9   1.1574074e-05
         1         2       105            87.6   1.1574074e-05
         1         2       106            95.1   1.1574074e-05
         1         2       107           112.0   1.1574074e-05
         1         2       108           106.2   1.1574074e-05
         1         2       109           105.5   1.1574074e-05
         1         2       110           108.8   1.1574074e-05
         1         2       111           110.2   1.1574074e-05
         1         2       112           113.3   1.1574074e-05
         1         2       113           112.6   1.1574074e-05
         1         2       114           112.8   1.1574074e-05
         1         2       115           114.3   1.1574074e-05
         1         2       116           114.6   1.1574074e-05
         1         2       117           114.1   1.1574074e-05
         1         2       120           117.3   1.1574074e-05
         1         2       121           118.6   1.1574074e-05
         1         2       122           119.9   1.1574074e-05
         1         2       123           120.5   1.1574074e-05
         1         2       124           121.8   1.1574074e-05
         1         2       125           128.2   1.1574074e-05
         1         2       126           128.1   1.1574074e-05
         1         3        67           172.7   1.1574074e-05
         1         3        70           112.4   1.1574074e-05
         1         3        72            97.6   1.1574074e-05
         1         3        73            98.1   1.1574074e-05
         1         3        74            97.8   1.1574074e-05
         1         3        75            93.9   1.1574074e-05
         1         3        77            96.7   1.1574074e-05
         1         3        80            95.8   1.1574074e-05
         1         3        81            95.9   1.1574074e-05
         1         3        82            94.2   1.1574074e-05
         1         3        85            72.1   1.1574074e-05
         1         3        86            70.7   1.1574074e-05
         1         3        87            71.5   1.1574074e-05
         1         3        88            77.7   1.1574074e-05
         1         3        89            75.1   1.1574074e-05
         1         3        90            69.1   1.1574074e-05
         1         3        93            69.7   1.1574074e-05
         1         3        94            71.8   1.1574074e-05
         1         3        95            94.3   1.1574074e-05
         1         3        96            94.7   1.1574074e-05
         1         3        97            94.9   1.1574074e-05
         1         3        98            95.4   1.1574074e-05
         1         3        99            95.8   1.1574074e-05
         1         3       100            86.7   1.1574074e-05
         1         3       102            72.5   1.1574074e-05
         1         3       103            73.6   1.1574074e-05
         1         3       104            78.0   1.1574074e-05
         1         3       105            86.7   1.1574074e-05
         1         3       106            94.5   1.1574074e-05
         1         3       107           109.9   1.1574074e-05
         1         3       108           100.2   1.1574074e-05
         1         3       109           100.4   1.1574074e-05
         1         3       110           109.5   1.1574074e-05
         1         3       111           111.0   1.1574074e-05
         1         3       112           111.7   1.1574074e-05
         1         3       113           111.3   1.1574074e-05
         1         3       114           112.2   1.1574074e-05
         1         3       115           112.8   1.1574074e-05
         1         3       116           113.1   1.1574074e-05
         1         3       119           114.9   1.1574074e-05
         1         3       120           116.2   1.1574074e-05
         1         3       121           116.7   1.1574074e-05
         1         3       122           118.2   1.1574074e-05
         1         3       123           119.6   1.1574074e-05
         1         3       124           121.0   1.1574074e-05
         1         3       125           123.7   1.1574074e-05
         1         3       126           125.4   1.1574074e-05
         1         4        67           169.5   1.1574074e-05
         1         4        68           148.6   1.1574074e-05
         1         4        72            98.7   1.1574074e-05
         1         4        73            98.4   1.1574074e-05
         1         4        74            98.5   1.1574074e-05
         1         4        75            98.1   1.1574074e-05
         1         4        76            97.4   1.1574074e-05
         1         4        77            97.4   1.1574074e-05
         1         4        78            97.2   1.1574074e-05
         1         4        81            95.6   1.1574074e-05
         1         4        82            97.2   1.1574074e-05
         1         4        83            93.7   1.1574074e-05
         1         4        95            67.8   1.1574074e-05
         1         4        96            92.9   1.1574074e-05
         1         4        97            94.1   1.1574074e-05
         1         4        98            94.5   1.1574074e-05
         1         4        99            95.1   1.1574074e-05
         1         4       100            81.6   1.1574074e-05
         1         4       102            71.1   1.1574074e-05
         1         4       103            69.5   1.1574074e-05
         1         4       104            79.2   1.1574074e-05
         1         4       105            85.6   1.1574074e-05
         1         4       106            93.9   1.1574074e-05
         1         4       107            99.2   1.1574074e-05
         1         4       108            95.2   1.1574074e-05
         1         4       109            99.7   1.1574074e-05
         1         4       110           108.3   1.1574074e-05
         1         4       111           109.7   1.1574074e-05
         1         4       112           109.9   1.1574074e-05
         1         4       113           110.1   1.1574074e-05
         1         4       114           110.7   1.1574074e-05
         1         4       115           111.5   1.1574074e-05
         1         4       116           111.4   1.1574074e-05
         1         4       118           112.7   1.1574074e-05
         1         4       119           114.0   1.1574074e-05
         1         4       120           114.8   1.1574074e-05
         1         4       121           114.1   1.1574074e-05
         1         4       122           117.4   1.1574074e-05
         1         4       123           119.3   1.1574074e-05
         1         4       124           121.0   1.1574074e-05
         1         4       125           122.6   1.1574074e-05
         1         4       126           124.7   1.1574074e-05
         1         5        67           131.8   1.1574074e-05
         1         5        68           131.8   1.1574074e-05
         1         5        69           117.7   1.1574074e-05
         1         5        71           100.2   1.1574074e-05
         1         5        72            99.2   1.1574074e-05
         1         5        73            99.0   1.1574074e-05
         1         5        74            99.0   1.1574074e-05
         1         5        75            98.5   1.1574074e-05
         1         5        76            98.5   1.1574074e-05
         1         5        77            98.1   1.1574074e-05
         1         5        78            97.7   1.1574074e-05
         1         5        79            97.1   1.1574074e-05
         1         5        82            95.8   1.1574074e-05
         1         5        83            92.6   1.1574074e-05
         1         5        86            81.1   1.1574074e-05
         1         5        87            76.4   1.1574074e-05
         1         5        88            77.2   1.1574074e-05
         1         5        89            95.4   1.1574074e-05
         1         5        90            87.6   1.1574074e-05
         1         5        91            82.4   1.1574074e-05
         1         5        92            80.6   1.1574074e-05
         1         5        93            68.3   1.1574074e-05
         1         5        95            67.5   1.1574074e-05
         1         5        96            85.9   1.1574074e-05
         1         5        97            94.3   1.1574074e-05
         1         5        98            94.3   1.1574074e-05
         1         5        99            94.4   1.1574074e-05
         1         5       100            64.4   1.1574074e-05
         1         5       102            67.2   1.1574074e-05
         1         5       103            69.3   1.1574074e-05
         1         5       104            83.4   1.1574074e-05
         1         5       105            85.7   1.1574074e-05
         1         5       106            93.5   1.1574074e-05
         1         5       107            91.2   1.1574074e-05
         1         5       108            94.8   1.1574074e-05
         1         5       109           102.0   1.1574074e-05
         1         5       110           107.2   1.1574074e-05
         1         5       111           108.5   1.1574074e-05
         1         5       112           108.4   1.1574074e-05
         1         5       113           108.6   1.1574074e-05
         1         5       114           109.4   1.1574074e-05
         1         5       115           109.1   1.1574074e-05
         1         5       118           110.3   1.1574074e-05
         1         5       119           113.5   1.1574074e-05
         1         5       120           113.8   1.1574074e-05
         1         5       121           113.5   1.1574074e-05
         1         5       122           116.6   1.1574074e-05
         1         5       123           118.9   1.1574074e-05
         1         5       124           122.1   1.1574074e-05
         1         5       125           124.2   1.1574074e-05
         1         5       126           125.9   1.1574074e-05
         1         6        71           100.4   1.1574074e-05
         1         6        72            99.7   1.1574074e-05
         1         6        73            99.8   1.1574074e-05
         1         6        74           100.0   1.1574074e-05
         1         6        75            99.7   1.1574074e-05
         1         6        76            99.7   1.1574074e-05
         1         6        77            98.3   1.1574074e-05
         1         6        78            98.2   1.1574074e-05
         1         6        79            98.1   1.1574074e-05
         1         6        80            89.2   1.1574074e-05
         1         6        83            90.6   1.1574074e-05
         1         6        85            86.5   1.1574074e-05
         1         6        86            95.0   1.1574074e-05
         1         6        87            94.8   1.1574074e-05
         1         6        88            95.4   1.1574074e-05
         1         6        89            94.8   1.1574074e-05
         1         6        90            93.4   1.1574074e-05
         1         6        91            87.7   1.1574074e-05
         1         6        92            86.5   1.1574074e-05
         1         6        93            86.2   1.1574074e-05
         1         6        96            67.4   1.1574074e-05
         1         6        97            76.1   1.1574074e-05
         1         6        98            88.8   1.1574074e-05
         1         6        99            91.3   1.1574074e-05
         1         6       100            64.3   1.1574074e-05
         1         6       102            66.6   1.1574074e-05
         1         6       103            71.9   1.1574074e-05
         1         6       104            83.6   1.1574074e-05
         1         6       105            86.8   1.1574074e-05
         1         6       106            93.8   1.1574074e-05
         1         6       107            92.3   1.1574074e-05
         1         6       108            93.3   1.1574074e-05
         1         6       109           104.0   1.1574074e-05
         1         6       110           107.0   1.1574074e-05
         1         6       111           107.6   1.1574074e-05
         1         6       112           107.5   1.1574074e-05
         1         6       113           106.8   1.1574074e-05
         1         6       114           105.6   1.1574074e-05
         1         6       117           108.4   1.1574074e-05
         1         6       118           110.4   1.1574074e-05
         1         6       119           111.7   1.1574074e-05
         1         6       120           112.0   1.1574074e-05
         1         6       121           112.8   1.1574074e-05
         1         6       122           115.3   1.1574074e-05
         1         6       123           119.2   1.1574074e-05
         1         6       124           119.2   1.1574074e-05
         1         6       125           113.5   1.1574074e-05
         1         6       126           114.0   1.1574074e-05
         1         7        67           116.2   1.1574074e-05
         1         7        68           108.1   1.1574074e-05
         1         7        69           106.0   1.1574074e-05
         1         7        70           102.0   1.1574074e-05
         1         7        71           100.8   1.1574074e-05
         1         7        72           100.2   1.1574074e-05
         1         7        73           100.3   1.1574074e-05
         1         7        74           100.8   1.1574074e-05
         1         7        75           101.0   1.1574074e-05
         1         7        76           100.4   1.1574074e-05
         1         7        77           100.6   1.1574074e-05
         1         7        78            99.8   1.1574074e-05
         1         7        79            98.9   1.1574074e-05
         1         7        80            97.0   1.1574074e-05
         1         7        81            88.4   1.1574074e-05
         1         7        85            95.7   1.1574074e-05
         1         7        86            94.5   1.1574074e-05
         1         7        87            94.4   1.1574074e-05
         1         7        88            94.0   1.1574074e-05
         1         7        89            94.6   1.1574074e-05
         1         7        90            94.5   1.1574074e-05
         1         7        91            94.3   1.1574074e-05
         1         7        92            88.1   1.1574074e-05
         1         7        93            85.8   1.1574074e-05
         1         7        94            84.3   1.1574074e-05
         1         7        98            69.8   1.1574074e-05
         1         7        99            79.8   1.1574074e-05
         1         7       102            67.3   1.1574074e-05
         1         7       103            73.0   1.1574074e-05
         1         7       104            79.8   1.1574074e-05
         1         7       105            87.9   1.1574074e-05
         1         7       106            92.9   1.1574074e-05
         1         7       107            91.5   1.1574074e-05
         1         7       108            91.1   1.1574074e-05
         1         7       109            99.9   1.1574074e-05
         1         7       110           103.0   1.1574074e-05
         1         7       111           104.6   1.1574074e-05
         1         7       112           104.9   1.1574074e-05
         1         7       113           103.2   1.1574074e-05
         1         7       116           105.6   1.1574074e-05
         1         7       117           107.7   1.1574074e-05
         1         7       118           109.6   1.1574074e-05
         1         7       119           111.1   1.1574074e-05
         1         7       120           111.8   1.1574074e-05
         1         7       121           113.3   1.1574074e-05
         1         7       122           114.1   1.1574074e-05
         1         7       123           112.8   1.1574074e-05
         1         7       124           111.7   1.1574074e-05
         1         7       125           111.5   1.1574074e-05
         1         7       126           116.8   1.1574074e-05
         1         8        67           135.6   1.1574074e-05
         1         8        68           113.8   1.1574074e-05
         1         8        69           113.4   1.1574074e-05
         1         8        70           102.8   1.1574074e-05
         1         8        71           101.4   1.1574074e-05
         1         8        72           100.9   1.1574074e-05
         1         8        73           101.0   1.1574074e-05
         1         8        74           101.8   1.1574074e-05
         1         8        75           101.9   1.1574074e-05
         1         8        76           101.4   1.1574074e-05
         1         8        77           101.7   1.1574074e-05
         1         8        78           101.3   1.1574074e-05
         1         8        79            99.9   1.1574074e-05
         1         8        80            91.2   1.1574074e-05
         1         8        84            87.4   1.1574074e-05
         1         8        85            95.8   1.1574074e-05
         1         8        86            94.9   1.1574074e-05
         1         8        87            94.1   1.1574074e-05
         1         8        88            93.0   1.1574074e-05
         1         8        89            92.8   1.1574074e-05
         1         8        90            94.0   1.1574074e-05
         1         8        91            93.9   1.1574074e-05
         1         8        92            95.5   1.1574074e-05
         1         8        93            93.3   1.1574074e-05
         1         8        94            93.3   1.1574074e-05
         1         8        95            95.4   1.1574074e-05
         1         8        96            67.3   1.1574074e-05
         1         8        99            65.2   1.1574074e-05
         1         8       101            63.7   1.1574074e-05
         1         8       102            67.9   1.1574074e-05
         1         8       103            69.8   1.1574074e-05
         1         8       104            77.7   1.1574074e-05
         1         8       105            88.6   1.1574074e-05
         1         8       106            91.7   1.1574074e-05
         1         8       107            91.6   1.1574074e-05
         1         8       108            91.6   1.1574074e-05
         1         8       109            98.9   1.1574074e-05
         1         8       110           100.1   1.1574074e-05
         1         8       111           100.7   1.1574074e-05
         1         8       112           101.4   1.1574074e-05
         1         8       115           103.7   1.1574074e-05
         1         8       116           105.1   1.1574074e-05
         1         8       117           107.2   1.1574074e-05
         1         8       118           108.6   1.1574074e-05
         1         8       119           108.5   1.1574074e-05
         1         8       120           109.4   1.1574074e-05
         1         8       121           110.8   1.1574074e-05
         1         8       122           110.4   1.1574074e-05
         1         8       123           108.4   1.1574074e-05
         1         8       124           108.8   1.1574074e-05
         1         8       125           116.7   1.1574074e-05
         1         8       126           123.9   1.1574074e-05
         1         9        67           143.4   1.1574074e-05
         1         9        68           123.4   1.1574074e-05
         1         9        69           117.2   1.1574074e-05
         1         9        70           105.3   1.1574074e-05
         1         9        71           102.7   1.1574074e-05
         1         9        72           102.8   1.1574074e-05
         1         9        73           102.5   1.1574074e-05
         1         9        74           102.6   1.1574074e-05
         1         9        75           102.5   1.1574074e-05
         1         9        76            81.8   1.1574074e-05
         1         9        79           101.0   1.1574074e-05
         1         9        82            74.6   1.1574074e-05
         1         9        83            97.2   1.1574074e-05
         1         9        84            96.5   1.1574074e-05
         1         9        85            95.6   1.1574074e-05
         1         9        86            95.1   1.1574074e-05
         1         9        87            94.0   1.1574074e-05
         1         9        88            93.4   1.1574074e-05
         1         9        89            92.1   1.1574074e-05
         1         9        90            92.8   1.1574074e-05
         1         9        91            93.7   1.1574074e-05
         1         9        92            94.9   1.1574074e-05
         1         9        93            95.1   1.1574074e-05
         1         9        94            93.6   1.1574074e-05
         1         9        95            94.7   1.1574074e-05
         1         9        96            94.7   1.1574074e-05
         1         9        97            93.8   1.1574074e-05
         1         9        98            65.9   1.1574074e-05
         1         9       101            64.2   1.1574074e-05
         1         9       102            68.6   1.1574074e-05
         1         9       103            71.8   1.1574074e-05
         1         9       104            76.9   1.1574074e-05
         1         9       105            88.4   1.1574074e-05
         1         9       106            91.1   1.1574074e-05
         1         9       107            94.0   1.1574074e-05
         1         9       108            93.1   1.1574074e-05
         1         9       109            96.8   1.1574074e-05
         1         9       110            97.9   1.1574074e-05
         1         9       111            98.1   1.1574074e-05
         1         9       112            94.2   1.1574074e-05
         1         9       114           101.4   1.1574074e-05
         1         9       115           102.8   1.1574074e-05
         1         9       116            98.9   1.1574074e-05
         1         9       117           102.5   1.1574074e-05
         1         9       118           104.3   1.1574074e-05
         1         9       119           106.9   1.1574074e-05
         1         9       120           108.0   1.1574074e-05
         1         9       121           108.4   1.1574074e-05
         1         9       122           107.3   1.1574074e-05
         1         9       123           108.2   1.1574074e-05
         1         9       124           108.7   1.1574074e-05
         1         9       125           114.4   1.1574074e-05
         1         9       126           116.8   1.1574074e-05
         1        10        67           137.6   1.1574074e-05
         1        10        68           127.4   1.1574074e-05
         1        10        69           118.5   1.1574074e-05
         1        10        70           107.7   1.1574074e-05
         1        10        71           105.3   1.1574074e-05
         1        10        72           104.1   1.1574074e-05
         1        10        73           104.1   1.1574074e-05
         1        10        74           103.2   1.1574074e-05
         1        10        75           103.1   1.1574074e-05
         1        10        76            80.3   1.1574074e-05
         1        10        81            97.9   1.1574074e-05
         1        10        82            95.7   1.1574074e-05
         1        10        83            95.3   1.1574074e-05
         1        10        84            95.6   1.1574074e-05
         1        10        85            95.9   1.1574074e-05
         1        10        86            95.3   1.1574074e-05
         1        10        87            93.8   1.1574074e-05
         1        10        88            93.6   1.1574074e-05
         1        10        89            92.0   1.1574074e-05
         1        10        90            91.6   1.1574074e-05
         1        10        91            93.6   1.1574074e-05
         1        10        92            94.6   1.1574074e-05
         1        10        93            94.3   1.1574074e-05
         1        10        94            93.6   1.1574074e-05
         1        10        95            94.7   1.1574074e-05
         1        10        96            94.0   1.1574074e-05
         1        10        97            94.2   1.1574074e-05