# HOB package for MODFLOW-NWT generated by Flopy 3.3.5
      5109         0         0       600         0
         1
LRR0061                 1        165         62       -161                  0.0     0.0000     0.0000     0.0000   # DATASET 3 - Observation 1
         1                                                                                                         # DATASET 5 - Observation 1
LRR0061.1               2                  0.0    32.5833                                                          # DATASET 6 - Observation 1.1
LRR0061.2               3                  0.0    32.1715                                                          # DATASET 6 - Observation 1.2
LRR0061.3               4                  0.0    31.8373                                                          # DATASET 6 - Observation 1.3
LRR0061.4               5                  0.0    31.9783                                                          # DATASET 6 - Observation 1.4
LRR0061.5               6                  0.0    35.2148                                                          # DATASET 6 - Observation 1.5
LRR0061.6               7                  0.0    38.6481                                                          # DATASET 6 - Observation 1.6
LRR0061.7               8                  0.0    40.0773                                                          # DATASET 6 - Observation 1.7
LRR0061.8               9                  0.0    38.9060                                                          # DATASET 6 - Observation 1.8
LRR0061.9              10                  0.0    37.9719                                                          # DATASET 6 - Observation 1.9
LRR0061.10             11                  0.0    37.2733                                                          # DATASET 6 - Observation 1.10
LRR0061.11             12                  0.0    36.5298                                                          # DATASET 6 - Observation 1.11
LRR0061.12             13                  0.0    35.9325                                                          # DATASET 6 - Observation 1.12
LRR0061.13             14                  0.0    37.7571                                                          # DATASET 6 - Observation 1.13
LRR0061.14             15                  0.0    38.5577                                                          # DATASET 6 - Observation 1.14
LRR0061.15             16                  0.0    39.3917                                                          # DATASET 6 - Observation 1.15
LRR0061.16             17                  0.0    40.2510                                                          # DATASET 6 - Observation 1.16
LRR0061.17             18                  0.0    42.6148                                                          # DATASET 6 - Observation 1.17
LRR0061.18             19                  0.0    45.9352                                                          # DATASET 6 - Observation 1.18
LRR0061.19             20                  0.0    47.1835                                                          # DATASET 6 - Observation 1.19
LRR0061.20             21                  0.0    45.8158                                                          # DATASET 6 - Observation 1.20
LRR0061.21             22                  0.0    43.4000                                                          # DATASET 6 - Observation 1.21
LRR0061.22             23                  0.0    42.9852                                                          # DATASET 6 - Observation 1.22
LRR0061.23             24                  0.0    43.5169                                                          # DATASET 6 - Observation 1.23
LRR0061.24             25                  0.0    42.9885                                                          # DATASET 6 - Observation 1.24
LRR0061.25             26                  0.0    41.8667                                                          # DATASET 6 - Observation 1.25
LRR0061.26             27                  0.0    40.7996                                                          # DATASET 6 - Observation 1.26
LRR0061.27             28                  0.0    39.5081                                                          # DATASET 6 - Observation 1.27
LRR0061.28             29                  0.0    38.5815                                                          # DATASET 6 - Observation 1.28
LRR0061.29             30                  0.0    38.1929                                                          # DATASET 6 - Observation 1.29
LRR0061.30             31                  0.0    38.4283                                                          # DATASET 6 - Observation 1.30
LRR0061.31             32                  0.0    37.8529                                                          # DATASET 6 - Observation 1.31
LRR0061.32             33                  0.0    37.2627                                                          # DATASET 6 - Observation 1.32
LRR0061.33             34                  0.0    36.6990                                                          # DATASET 6 - Observation 1.33
LRR0061.34             35                  0.0    36.2402                                                          # DATASET 6 - Observation 1.34
LRR0061.35             36                  0.0    35.7510                                                          # DATASET 6 - Observation 1.35
LRR0061.36             37                  0.0    35.3742                                                          # DATASET 6 - Observation 1.36
LRR0061.37             38                  0.0    34.8985                                                          # DATASET 6 - Observation 1.37
LRR0061.38             39                  0.0    34.4646                                                          # DATASET 6 - Observation 1.38
LRR0061.39             40                  0.0    34.1658                                                          # DATASET 6 - Observation 1.39
LRR0061.40             41                  0.0    34.0213                                                          # DATASET 6 - Observation 1.40
LRR0061.41             42                  0.0    33.7465                                                          # DATASET 6 - Observation 1.41
LRR0061.42             43                  0.0    33.7008                                                          # DATASET 6 - Observation 1.42
LRR0061.43             44                  0.0    33.5998                                                          # DATASET 6 - Observation 1.43
LRR0061.44             45                  0.0    33.5025                                                          # DATASET 6 - Observation 1.44
LRR0061.45             46                  0.0    33.2402                                                          # DATASET 6 - Observation 1.45
LRR0061.46             47                  0.0    32.9077                                                          # DATASET 6 - Observation 1.46
LRR0061.47             48                  0.0    32.4667                                                          # DATASET 6 - Observation 1.47
LRR0061.48             49                  0.0    32.4035                                                          # DATASET 6 - Observation 1.48
LRR0061.49             50                  0.0    32.9181                                                          # DATASET 6 - Observation 1.49
LRR0061.50             51                  0.0    33.5231                                                          # DATASET 6 - Observation 1.50
LRR0061.51             52                  0.0    34.1473                                                          # DATASET 6 - Observation 1.51
LRR0061.52             53                  0.0    33.9192                                                          # DATASET 6 - Observation 1.52
LRR0061.53             54                  0.0    33.5896                                                          # DATASET 6 - Observation 1.53
LRR0061.54             55                  0.0    33.4669                                                          # DATASET 6 - Observation 1.54
LRR0061.55             56                  0.0    33.4108                                                          # DATASET 6 - Observation 1.55
LRR0061.56             57                  0.0    33.3127                                                          # DATASET 6 - Observation 1.56
LRR0061.57             58                  0.0    33.2152                                                          # DATASET 6 - Observation 1.57
LRR0061.58             59                  0.0    33.1206                                                          # DATASET 6 - Observation 1.58
LRR0061.59             60                  0.0    32.9517                                                          # DATASET 6 - Observation 1.59
LRR0061.60             61                  0.0    32.7427                                                          # DATASET 6 - Observation 1.60
LRR0061.61             62                  0.0    32.6229                                                          # DATASET 6 - Observation 1.61
LRR0061.62             63                  0.0    32.5183                                                          # DATASET 6 - Observation 1.62
LRR0061.63             64                  0.0    32.5008                                                          # DATASET 6 - Observation 1.63
LRR0061.64             65                  0.0    32.7610                                                          # DATASET 6 - Observation 1.64
LRR0061.65             66                  0.0    35.4938                                                          # DATASET 6 - Observation 1.65
LRR0061.66             67                  0.0    41.1335                                                          # DATASET 6 - Observation 1.66
LRR0061.67             68                  0.0    44.4977                                                          # DATASET 6 - Observation 1.67
LRR0061.68             69                  0.0    44.3210                                                          # DATASET 6 - Observation 1.68
LRR0061.69             70                  0.0    43.8817                                                          # DATASET 6 - Observation 1.69
LRR0061.70             71                  0.0    47.7360                                                          # DATASET 6 - Observation 1.70
LRR0061.71             72                  0.0    52.1798                                                          # DATASET 6 - Observation 1.71
LRR0061.72             73                  0.0    53.0340                                                          # DATASET 6 - Observation 1.72
LRR0061.73             74                  0.0    54.4867                                                          # DATASET 6 - Observation 1.73
LRR0061.74             75                  0.0    54.3479                                                          # DATASET 6 - Observation 1.74
LRR0061.75             76                  0.0    51.0965                                                          # DATASET 6 - Observation 1.75
LRR0061.76             77                  0.0    49.0315                                                          # DATASET 6 - Observation 1.76
LRR0061.77             78                  0.0    47.4787                                                          # DATASET 6 - Observation 1.77
LRR0061.78             79                  0.0    45.6883                                                          # DATASET 6 - Observation 1.78
LRR0061.79             80                  0.0    44.1087                                                          # DATASET 6 - Observation 1.79
LRR0061.80             81                  0.0    43.4635                                                          # DATASET 6 - Observation 1.80
LRR0061.81             82                  0.0    43.9504                                                          # DATASET 6 - Observation 1.81
LRR0061.82             83                  0.0    43.8840                                                          # DATASET 6 - Observation 1.82
LRR0061.83             84                  0.0    43.1413                                                          # DATASET 6 - Observation 1.83
LRR0061.84             85                  0.0    42.2560                                                          # DATASET 6 - Observation 1.84
LRR0061.85             86                  0.0    41.3767                                                          # DATASET 6 - Observation 1.85
LRR0061.86             87                  0.0    40.6306                                                          # DATASET 6 - Observation 1.86
LRR0061.87             88                  0.0    39.9177                                                          # DATASET 6 - Observation 1.87
LRR0061.88             89                  0.0    38.8646                                                          # DATASET 6 - Observation 1.88
LRR0061.89             90                  0.0    37.7525                                                          # DATASET 6 - Observation 1.89
LRR0061.90             91                  0.0    37.0479                                                          # DATASET 6 - Observation 1.90
LRR0061.91             92                  0.0    36.5542                                                          # DATASET 6 - Observation 1.91
LRR0061.92             93                  0.0    36.0873                                                          # DATASET 6 - Observation 1.92
LRR0061.93             94                  0.0    35.5548                                                          # DATASET 6 - Observation 1.93
LRR0061.94             95                  0.0    35.2475                                                          # DATASET 6 - Observation 1.94
LRR0061.95             96                  0.0    35.0250                                                          # DATASET 6 - Observation 1.95
LRR0061.96             97                  0.0    34.6352                                                          # DATASET 6 - Observation 1.96
LRR0061.97             98                  0.0    34.2360                                                          # DATASET 6 - Observation 1.97
LRR0061.98             99                  0.0    33.9942                                                          # DATASET 6 - Observation 1.98
LRR0061.99            100                  0.0    33.8542                                                          # DATASET 6 - Observation 1.99
LRR0061.100           101                  0.0    33.7079                                                          # DATASET 6 - Observation 1.100
LRR0061.101           102                  0.0    33.7373                                                          # DATASET 6 - Observation 1.101
LRR0061.102           103                  0.0    33.7494                                                          # DATASET 6 - Observation 1.102
LRR0061.103           104                  0.0    33.6362                                                          # DATASET 6 - Observation 1.103
LRR0061.104           105                  0.0    33.4306                                                          # DATASET 6 - Observation 1.104
LRR0061.105           106                  0.0    33.4281                                                          # DATASET 6 - Observation 1.105
LRR0061.106           107                  0.0    33.2933                                                          # DATASET 6 - Observation 1.106
LRR0061.107           108                  0.0    33.1006                                                          # DATASET 6 - Observation 1.107
LRR0061.108           109                  0.0    33.0048                                                          # DATASET 6 - Observation 1.108
LRR0061.109           110                  0.0    32.8906                                                          # DATASET 6 - Observation 1.109
LRR0061.110           111                  0.0    32.7550                                                          # DATASET 6 - Observation 1.110
LRR0061.111           112                  0.0    32.6431                                                          # DATASET 6 - Observation 1.111
LRR0061.112           113                  0.0    32.4867                                                          # DATASET 6 - Observation 1.112
LRR0061.113           114                  0.0    32.8369                                                          # DATASET 6 - Observation 1.113
LRR0061.114           115                  0.0    32.8283                                                          # DATASET 6 - Observation 1.114
LRR0061.115           116                  0.0    32.6315                                                          # DATASET 6 - Observation 1.115
LRR0061.116           117                  0.0    32.5425                                                          # DATASET 6 - Observation 1.116
LRR0061.117           118                  0.0    32.3879                                                          # DATASET 6 - Observation 1.117
LRR0061.118           119                  0.0    32.1854                                                          # DATASET 6 - Observation 1.118
LRR0061.119           120                  0.0    32.1192                                                          # DATASET 6 - Observation 1.119
LRR0061.120           121                  0.0    31.9173                                                          # DATASET 6 - Observation 1.120
LRR0061.121           122                  0.0    31.6704                                                          # DATASET 6 - Observation 1.121
LRR0061.122           123                  0.0    31.6800                                                          # DATASET 6 - Observation 1.122
LRR0061.123           124                  0.0    31.5823                                                          # DATASET 6 - Observation 1.123
LRR0061.124           125                  0.0    31.3654                                                          # DATASET 6 - Observation 1.124
LRR0061.125           126                  0.0    31.3062                                                          # DATASET 6 - Observation 1.125
LRR0061.126           127                  0.0    31.2725                                                          # DATASET 6 - Observation 1.126
LRR0061.127           128                  0.0    31.3292                                                          # DATASET 6 - Observation 1.127
LRR0061.128           129                  0.0    31.4340                                                          # DATASET 6 - Observation 1.128
LRR0061.129           130                  0.0    31.4031                                                          # DATASET 6 - Observation 1.129
LRR0061.130           131                  0.0    31.2794                                                          # DATASET 6 - Observation 1.130
LRR0061.131           132                  0.0    31.2315                                                          # DATASET 6 - Observation 1.131
LRR0061.132           133                  0.0    31.2727                                                          # DATASET 6 - Observation 1.132
LRR0061.133           134                  0.0    31.2496                                                          # DATASET 6 - Observation 1.133
LRR0061.134           135                  0.0    31.1990                                                          # DATASET 6 - Observation 1.134
LRR0061.135           136                  0.0    31.1544                                                          # DATASET 6 - Observation 1.135
LRR0061.136           137                  0.0    31.0575                                                          # DATASET 6 - Observation 1.136
LRR0061.137           138                  0.0    30.9377                                                          # DATASET 6 - Observation 1.137
LRR0061.138           139                  0.0    30.9667                                                          # DATASET 6 - Observation 1.138
LRR0061.139           140                  0.0    30.8927                                                          # DATASET 6 - Observation 1.139
LRR0061.140           141                  0.0    30.7340                                                          # DATASET 6 - Observation 1.140
LRR0061.141           142                  0.0    30.9215                                                          # DATASET 6 - Observation 1.141
LRR0061.142           143                  0.0    31.1313                                                          # DATASET 6 - Observation 1.142
LRR0061.143           144                  0.0    31.0500                                                          # DATASET 6 - Observation 1.143
LRR0061.144           145                  0.0    30.9242                                                          # DATASET 6 - Observation 1.144
LRR0061.145           146                  0.0    31.0658                                                          # DATASET 6 - Observation 1.145
LRR0061.146           147                  0.0    31.1302                                                          # DATASET 6 - Observation 1.146
LRR0061.147           148                  0.0    30.9394                                                          # DATASET 6 - Observation 1.147
LRR0061.148           149                  0.0    30.7181                                                          # DATASET 6 - Observation 1.148
LRR0061.149           150                  0.0    30.6775                                                          # DATASET 6 - Observation 1.149
LRR0061.150           151                  0.0    30.7410                                                          # DATASET 6 - Observation 1.150
LRR0061.151           152                  0.0    30.6848                                                          # DATASET 6 - Observation 1.151
LRR0061.152           153                  0.0    30.6996                                                          # DATASET 6 - Observation 1.152
LRR0061.153           154                  0.0    30.7067                                                          # DATASET 6 - Observation 1.153
LRR0061.154           155                  0.0    30.6640                                                          # DATASET 6 - Observation 1.154
LRR0061.155           156                  0.0    30.5475                                                          # DATASET 6 - Observation 1.155
LRR0061.156           157                  0.0    30.4723                                                          # DATASET 6 - Observation 1.156
LRR0061.157           158                  0.0    30.2794                                                          # DATASET 6 - Observation 1.157
LRR0061.158           159                  0.0    30.2633                                                          # DATASET 6 - Observation 1.158
LRR0061.159           160                  0.0    30.3227                                                          # DATASET 6 - Observation 1.159
LRR0061.160           161                  0.0    30.3412                                                          # DATASET 6 - Observation 1.160
LRR0061.161           162                  0.0    30.3257                                                          # DATASET 6 - Observation 1.161
LRR0063                 1        160         63       -205                  0.0     0.0000     0.0000     0.0000   # DATASET 3 - Observation 2
         1                                                                                                         # DATASET 5 - Observation 2
LRR0063.161           162                  0.0    30.4450                                                          # DATASET 6 - Observation 2.1
LRR0063.162           163                  0.0    30.3967                                                          # DATASET 6 - Observation 2.2
LRR0063.163           164                  0.0    30.4013                                                          # DATASET 6 - Observation 2.3
LRR0063.164           165                  0.0    30.5054                                                          # DATASET 6 - Observation 2.4
LRR0063.165           166                  0.0    30.4142                                                          # DATASET 6 - Observation 2.5
LRR0063.166           167                  0.0    30.3146                                                          # DATASET 6 - Observation 2.6
LRR0063.167           168                  0.0    30.3921                                                          # DATASET 6 - Observation 2.7
LRR0063.168           169                  0.0    30.3592                                                          # DATASET 6 - Observation 2.8
LRR0063.169           170                  0.0    30.4538                                                          # DATASET 6 - Observation 2.9
LRR0063.170           171                  0.0    30.4158                                                          # DATASET 6 - Observation 2.10
LRR0063.171           172                  0.0    30.3412                                                          # DATASET 6 - Observation 2.11
LRR0063.172           173                  0.0    30.2829                                                          # DATASET 6 - Observation 2.12
LRR0063.173           174                  0.0    30.1729                                                          # DATASET 6 - Observation 2.13
LRR0063.174           175                  0.0    30.2008                                                          # DATASET 6 - Observation 2.14
LRR0063.175           176                  0.0    30.0804                                                          # DATASET 6 - Observation 2.15
LRR0063.176           177                  0.0    29.8988                                                          # DATASET 6 - Observation 2.16
LRR0063.177           178                  0.0    29.9204                                                          # DATASET 6 - Observation 2.17
LRR0063.178           179                  0.0    29.9521                                                          # DATASET 6 - Observation 2.18
LRR0063.179           180                  0.0    29.6692                                                          # DATASET 6 - Observation 2.19
LRR0063.180           181                  0.0    29.5783                                                          # DATASET 6 - Observation 2.20
LRR0063.181           182                  0.0    29.5658                                                          # DATASET 6 - Observation 2.21
LRR0063.182           183                  0.0    29.5504                                                          # DATASET 6 - Observation 2.22
LRR0063.183           184                  0.0    29.6792                                                          # DATASET 6 - Observation 2.23
LRR0063.184           185                  0.0    29.8050                                                          # DATASET 6 - Observation 2.24
LRR0063.185           186                  0.0    29.8042                                                          # DATASET 6 - Observation 2.25
LRR0063.186           187                  0.0    29.8004                                                          # DATASET 6 - Observation 2.26
LRR0063.187           188                  0.0    29.7808                                                          # DATASET 6 - Observation 2.27
LRR0063.188           189                  0.0    29.8075                                                          # DATASET 6 - Observation 2.28
LRR0063.189           190                  0.0    29.8075                                                          # DATASET 6 - Observation 2.29
LRR0063.190           191                  0.0    30.0467                                                          # DATASET 6 - Observation 2.30
LRR0063.191           192                  0.0    31.1592                                                          # DATASET 6 - Observation 2.31
LRR0063.192           193                  0.0    32.0121                                                          # DATASET 6 - Observation 2.32
LRR0063.193           194                  0.0    32.9354                                                          # DATASET 6 - Observation 2.33
LRR0063.194           195                  0.0    33.7062                                                          # DATASET 6 - Observation 2.34
LRR0063.195           196                  0.0    34.4250                                                          # DATASET 6 - Observation 2.35
LRR0063.196           197                  0.0    35.0504                                                          # DATASET 6 - Observation 2.36
LRR0063.197           198                  0.0    35.4137                                                          # DATASET 6 - Observation 2.37
LRR0063.198           199                  0.0    35.7071                                                          # DATASET 6 - Observation 2.38
LRR0063.199           200                  0.0    36.1171                                                          # DATASET 6 - Observation 2.39