# DRN package for MODFLOW-NWT generated by Flopy 3.3.5
       869         0
       869         0 # stress period 1
         1         2        67     172.1     1E+07
         1         2        68     155.6     1E+07
         1         3        68     138.8     1E+07
         1         3        69     113.2     1E+07
         1         4        69     107.6     1E+07
         1         4        70      94.8     1E+07
         1         6        67     109.1     1E+07
         1         6        68     104.8     1E+07
         1         6        69     102.8     1E+07
         1         6        70      96.2     1E+07
         1         5        70      95.4     1E+07
         1         4        71      93.5     1E+07
         1         3        71      92.8     1E+07
         1         2        71      95.5     1E+07
         1         2        72      92.6     1E+07
         1         2        73      91.3     1E+07
         1         2        74      89.6     1E+07
         1         3        76        89     1E+07
         1         2        77        88     1E+07
         1         2        75      88.8     1E+07
         1        18        67      92.5     1E+07
         1        17        67      88.6     1E+07
         1        16        67      89.6     1E+07
         1        16        68      89.8     1E+07
         1        16        69        89     1E+07
         1        15        69      86.8     1E+07
         1        15        70      87.2     1E+07
         1        16        70      86.1     1E+07
         1        16        71      84.8     1E+07
         1        16        72      84.2     1E+07
         1        15        72      83.4     1E+07
         1        14        72      82.1     1E+07
         1        14        73      79.8     1E+07
         1        14        74      80.7     1E+07
         1        14        75      80.1     1E+07
         1        13        75      78.3     1E+07
         1        12        75      78.3     1E+07
         1        11        75      76.6     1E+07
         1        11        76      75.9     1E+07
         1         2        78      85.9     1E+07
         1         3        78      86.1     1E+07
         1         3        79      85.6     1E+07
         1         4        79      85.3     1E+07
         1         4        80      85.2     1E+07
         1         5        80      84.7     1E+07
         1         5        81        89     1E+07
         1         6        81      83.5     1E+07
         1         6        82      87.3     1E+07
         1         7        82      73.6     1E+07
         1         7        83      67.9     1E+07
         1         7        84        68     1E+07
         1        11        77      76.1     1E+07
         1        10        77      76.1     1E+07
         1         9        77        76     1E+07
         1         9        78      73.9     1E+07
         1        10        78      73.1     1E+07
         1        10        79      74.5     1E+07
         1        10        80      71.8     1E+07
         1         9        80      70.6     1E+07
         1         9        81      69.9     1E+07
         1         8        81      70.2     1E+07
         1         8        82      68.6     1E+07
         1         8        83      68.3     1E+07
         1         6        84      65.6     1E+07
         1         5        84      64.7     1E+07
         1         5        85      65.5     1E+07
         1         4        85      65.5     1E+07
         1         2        83      67.1     1E+07
         1         3        83      67.5     1E+07
         1         3        84      66.4     1E+07
         1         4        84      66.1     1E+07
         1         2        91        64     1E+07
         1         3        91      63.7     1E+07
         1         4        86      65.2     1E+07
         1         4        87      65.2     1E+07
         1         4        88      64.5     1E+07
         1         4        89        64     1E+07
         1         4        90      63.7     1E+07
         1         4        91      63.6     1E+07
         1         3        92      63.9     1E+07
         1         4        92      63.8     1E+07
         1         4        93      63.2     1E+07
         1         4        94      63.6     1E+07
         1         5        94      62.6     1E+07
         1         6        94      62.9     1E+07
         1         6        95      62.4     1E+07
         1         7        95        62     1E+07
         1         7        96      61.8     1E+07
         1         7        97      61.8     1E+07
         1         8        97      61.1     1E+07
         1         8        98      60.5     1E+07
         1         9        99      59.4     1E+07
         1         9       100      58.5     1E+07
         1        25       129     105.6     1E+07
         1        26       129     104.9     1E+07
         1         2       119     101.7     1E+07
         1         2       118     102.9     1E+07
         1         3       118     102.7     1E+07
         1         3       117     101.9     1E+07
         1         4       117      98.2     1E+07
         1         5       117      99.9     1E+07
         1         5       116      97.3     1E+07
         1         6       116      95.8     1E+07
         1         6       115        95     1E+07
         1         7       115      94.4     1E+07
         1         7       114      92.3     1E+07
         1         8       114      90.8     1E+07
         1         8       113        90     1E+07
         1         9       113      88.6     1E+07
         1        10       113      90.3     1E+07
         1        10       112      85.9     1E+07
         1        11       112      85.9     1E+07
         1        12       112      84.1     1E+07
         1        12       111      83.8     1E+07
         1        13       111      78.3     1E+07
         1        13       110      76.8     1E+07
         1        13       109      75.9     1E+07
         1        13       108      74.2     1E+07
         1        13       107        74     1E+07
         1        13       106      72.9     1E+07
         1        13       105      71.7     1E+07
         1        13       104      63.8     1E+07
         1        13       103      61.3     1E+07
         1        13       102      57.8     1E+07
         1         2       101        59     1E+07
         1         3       101      58.8     1E+07
         1         4       101      58.6     1E+07
         1         5       101      58.9     1E+07
         1         6       101      59.2     1E+07
         1         7       101      59.2     1E+07
         1         7       100      59.3     1E+07
         1         8       100      58.5     1E+07
         1        26       128     104.1     1E+07
         1        14       102      57.4     1E+07
         1        10       100      58.6     1E+07
         1        11       100      58.5     1E+07
         1        11       101      57.9     1E+07
         1        12       101        58     1E+07
         1        13       101        58     1E+07
         1        85        88      97.6     1E+07
         1        85        89      87.5     1E+07
         1        86        89      86.8     1E+07
         1        86        90      80.4     1E+07
         1        86        91      76.3     1E+07
         1        87        91      76.2     1E+07
         1        82        90     104.7     1E+07
         1        83        90      95.4     1E+07
         1        83        91      93.2     1E+07
         1        84        91      84.6     1E+07
         1        85        91      79.4     1E+07
         1        63        85      77.8     1E+07
         1        62        85      76.7     1E+07
         1        61        85        78     1E+07
         1        61        86      76.6     1E+07
         1        61        87      74.6     1E+07
         1        61        88      73.8     1E+07
         1        57        85      85.1     1E+07
         1        58        85      84.5     1E+07
         1        58        86      82.9     1E+07
         1        59        86      81.8     1E+07
         1        59        87      81.3     1E+07
         1        60        87      79.3     1E+07
         1        40       129      95.5     1E+07
         1        41       129      95.5     1E+07
         1        41       128      94.8     1E+07
         1        42       127      92.6     1E+07
         1        41       127      90.6     1E+07
         1        41       126      89.7     1E+07
         1        40       126      91.3     1E+07
         1        40       125      88.5     1E+07
         1        40       124      88.1     1E+07
         1        39       124      88.1     1E+07
         1        39       123      87.5     1E+07
         1        38       123      91.9     1E+07
         1        38       122      83.7     1E+07
         1        38       121      83.1     1E+07
         1        37       121      82.5     1E+07
         1        36       120      81.5     1E+07
         1        36       119      79.4     1E+07
         1        36       118      79.8     1E+07
         1        35       118      78.3     1E+07
         1        26       127     102.9     1E+07
         1        26       126     101.2     1E+07
         1        26       125      99.5     1E+07
         1        26       124     103.2     1E+07
         1        27       124      96.8     1E+07
         1        28       125      95.5     1E+07
         1        29       125        94     1E+07
         1        30       125      96.8     1E+07
         1        30       124      92.6     1E+07
         1        31       124      90.5     1E+07
         1        32       124      90.4     1E+07
         1        33       124      90.1     1E+07
         1        33       123        90     1E+07
         1        34       123      89.7     1E+07
         1        34       122      86.8     1E+07
         1        34       121      85.7     1E+07
         1        34       120      84.4     1E+07
         1        34       119      81.5     1E+07
         1        34       118      77.1     1E+07
         1        15       102      57.6     1E+07
         1        15       103      57.5     1E+07
         1        16       103      57.3     1E+07
         1        17       103      57.5     1E+07
         1        17       104      57.8     1E+07
         1        18       104      57.7     1E+07
         1        19       104      57.1     1E+07
         1        20       104        57     1E+07
         1        21       104      56.8     1E+07
         1        87        92        73     1E+07
         1        87        93      70.4     1E+07
         1        87        94        70     1E+07
         1        88        94      69.5     1E+07
         1        88        95      67.3     1E+07
         1        75        88      94.8     1E+07
         1        75        89      90.7     1E+07
         1        74        89      85.6     1E+07
         1        74        90        82     1E+07
         1        74        91      77.6     1E+07
         1        74        92      74.2     1E+07
         1        74        93      73.2     1E+07
         1        75        93      72.5     1E+07
         1        76        94      71.8     1E+07
         1        77        94      72.4     1E+07
         1        78        94        73     1E+07
         1        78        95      70.6     1E+07
         1        79        95      71.1     1E+07
         1        80        95      71.9     1E+07
         1        80        96      69.4     1E+07
         1        81        96      69.4     1E+07
         1        81        97      69.2     1E+07
         1        82        97      68.6     1E+07
         1        83        97      68.1     1E+07
         1        84        97      68.3     1E+07
         1        85        97      68.1     1E+07
         1        85        96      68.1     1E+07
         1        86        96      67.8     1E+07
         1        86        95      67.7     1E+07
         1        87        95      67.3     1E+07
         1        61        89      73.5     1E+07
         1        61        90      74.7     1E+07
         1        62        90      71.5     1E+07
         1        62        91      70.4     1E+07
         1        62        92      68.7     1E+07
         1        63        92      67.8     1E+07
         1        64        92      73.8     1E+07
         1        65        92      74.3     1E+07
         1        66        92      74.6     1E+07
         1        66        93      67.3     1E+07
         1        32        82      78.2     1E+07
         1        33        82      78.5     1E+07
         1        34        82      77.9     1E+07
         1        34        83      79.2     1E+07
         1        35        83      78.2     1E+07
         1        36        83      78.3     1E+07
         1        36        84      77.4     1E+07
         1        37        84      77.7     1E+07
         1        37        85        78     1E+07
         1        38        85      76.4     1E+07
         1        39        85      76.9     1E+07
         1        39        86      75.9     1E+07
         1        40        86      75.4     1E+07
         1        40        87      75.1     1E+07
         1        41        87      74.2     1E+07
         1        42        88      74.2     1E+07
         1        41        88      74.5     1E+07
         1        42        89      74.4     1E+07
         1        43        89      78.2     1E+07
         1        43        90      74.5     1E+07
         1        43        91      74.3     1E+07
         1        44        91      74.2     1E+07
         1        44        92      73.9     1E+07
         1        45        92      73.8     1E+07
         1        45        93      74.3     1E+07
         1        46        93      74.6     1E+07
         1        46        94      73.8     1E+07
         1        47        94      73.5     1E+07
         1        47        95      71.9     1E+07
         1        48        95      71.7     1E+07
         1        49        95      71.1     1E+07
         1        50        95      76.3     1E+07
         1        50        96      70.7     1E+07
         1        51        96      69.3     1E+07
         1        51        97      69.2     1E+07
         1        52        97      67.6     1E+07
         1        52        98      54.5     1E+07
         1        53        98      58.8     1E+07
         1        53        99      50.7     1E+07
         1        54        99      63.6     1E+07
         1        54       100        51     1E+07
         1        55       100      54.5     1E+07
         1        56       100      71.3     1E+07
         1        57       100      70.8     1E+07
         1        57        99      71.9     1E+07
         1        58        99      71.2     1E+07
         1        59        99      71.3     1E+07
         1        59        98      71.2     1E+07
         1        60        98      70.7     1E+07
         1        61        98      70.6     1E+07
         1        61        97      70.3     1E+07
         1        62        97      70.6     1E+07
         1        62        96      70.8     1E+07
         1        62        95      71.2     1E+07
         1        63        95      70.7     1E+07
         1        64        94      69.3     1E+07
         1        65        94      69.6     1E+07
         1        65        93      66.6     1E+07
         1        35       117      85.2     1E+07
         1        35       116      84.7     1E+07
         1        34       116      74.2     1E+07
         1        34       115      75.7     1E+07
         1        35       115      73.8     1E+07
         1        36       115      70.1     1E+07
         1        36       114      65.8     1E+07
         1        37       114        64     1E+07
         1        38       114      60.4     1E+07
         1        39       114        58     1E+07
         1        40       114        58     1E+07
         1        40       113      56.5     1E+07
         1        41       113      54.4     1E+07
         1        41       112      51.6     1E+07
         1        22       104      56.3     1E+07
         1        23       104      56.2     1E+07
         1        23       103      55.6     1E+07
         1        94        80      89.3     1E+07
         1        93        80      88.9     1E+07
         1        93        81      83.9     1E+07
         1        93        82      83.7     1E+07
         1        93        83      82.3     1E+07
         1        93        84      81.2     1E+07
         1        93        85      80.3     1E+07
         1        94        85      78.4     1E+07
         1        95        85      77.6     1E+07
         1        95        86      77.6     1E+07
         1        96        86      73.9     1E+07
         1        97        86      72.5     1E+07
         1        97        87      70.9     1E+07
         1        98        88      66.3     1E+07
         1        98        89      65.9     1E+07
         1        99        89      63.5     1E+07
         1        99        90      60.9     1E+07
         1        98        90      59.7     1E+07
         1        99        91      56.6     1E+07
         1        99        92      53.5     1E+07
         1       100        92      54.6     1E+07
         1       100        93        52     1E+07
         1       101        93      51.5     1E+07
         1        89        95      66.8     1E+07
         1        90        95      66.6     1E+07
         1        91        95      66.2     1E+07
         1        92        95      65.1     1E+07
         1        93        95      64.8     1E+07
         1        94        95      66.8     1E+07
         1        94        94      66.6     1E+07
         1        95        94      65.7     1E+07
         1        96        94      65.5     1E+07
         1        97        94      65.6     1E+07
         1        98        94      64.9     1E+07
         1        99        94      57.6     1E+07
         1       100        94      57.5     1E+07
         1       101        94      54.1     1E+07
         1        66        94      66.1     1E+07
         1        66        95      64.8     1E+07
         1        66        96      63.6     1E+07
         1        66        97      63.8     1E+07
         1        66        98      63.5     1E+07
         1        66        99      63.1     1E+07
         1        66       100      50.7     1E+07
         1        24       103      55.8     1E+07
         1        25       103      55.3     1E+07
         1        26       103      55.4     1E+07
         1        27       103        55     1E+07
         1        28       104      54.8     1E+07
         1        29       104      54.3     1E+07
         1        29       105        54     1E+07
         1        30       105      53.7     1E+07
         1        31       105      53.6     1E+07
         1        32       105      53.1     1E+07
         1        32       106      52.7     1E+07
         1        33       106      52.7     1E+07
         1        33       107      52.2     1E+07
         1        34       107      51.7     1E+07
         1        34       108      51.7     1E+07
         1        35       108      51.8     1E+07
         1        35       109      51.3     1E+07
         1        35       110      51.8     1E+07
         1        36       110      51.4     1E+07
         1        37       110      51.7     1E+07
         1        37       111      51.7     1E+07
         1        38       111      51.3     1E+07
         1        39       111      51.3     1E+07
         1        39       112      51.7     1E+07
         1        40       112      51.5     1E+07
         1       102        93      51.1     1E+07
         1       102        94      50.8     1E+07
         1       102        95      47.8     1E+07
         1       102        96      42.7     1E+07
         1       101        96      44.5     1E+07
         1        66       101      46.2     1E+07
         1        42       112      51.7     1E+07
         1        43       112      51.7     1E+07
         1        44       112      51.4     1E+07
         1        44       111        51     1E+07
         1        45       111      51.2     1E+07
         1        46       111      50.9     1E+07
         1        46       110      51.2     1E+07
         1        47       110      50.7     1E+07
         1        48       109      50.9     1E+07
         1        49       109      50.3     1E+07
         1        50       109      50.3     1E+07
         1        51       109      49.9     1E+07
         1        52       109      49.9     1E+07
         1        53       109      49.8     1E+07
         1        54       109      49.8     1E+07
         1        55       109      50.2     1E+07
         1        55       108      50.3     1E+07
         1        56       108        50     1E+07
         1        57       108      49.9     1E+07
         1        57       107      49.3     1E+07
         1        58       107      49.6     1E+07
         1        58       106      48.7     1E+07
         1        57       106      48.6     1E+07
         1        57       105      48.8     1E+07
         1        58       105      48.5     1E+07
         1        58       104      48.5     1E+07
         1        59       104      47.5     1E+07
         1        60       104      47.8     1E+07
         1        61       104      47.5     1E+07
         1        62       104      47.5     1E+07
         1        62       103      46.9     1E+07
         1        63       102      46.7     1E+07
         1        64       102      46.4     1E+07
         1        64       101      46.4     1E+07
         1        65       101      46.4     1E+07
         1       102        97      41.5     1E+07
         1        67       101      46.6     1E+07
         1        68       101      46.4     1E+07
         1        69       101        46     1E+07
         1        70       101      45.6     1E+07
         1        71       101      45.7     1E+07
         1        72       101      45.5     1E+07
         1        73       101      45.5     1E+07
         1        74       101        46     1E+07
         1        75       101      45.8     1E+07
         1        76       101      45.6     1E+07
         1        77       101      45.3     1E+07
         1        77       100      45.2     1E+07
         1        78       100      45.3     1E+07
         1        79       100      45.2     1E+07
         1        80       100      44.9     1E+07
         1        80       101      44.9     1E+07
         1        81       101      44.7     1E+07
         1        82       101      44.4     1E+07
         1        82       102      44.4     1E+07
         1        83       102      44.3     1E+07
         1        84       102      43.7     1E+07
         1        85       102      43.7     1E+07
         1        85       103      43.4     1E+07
         1        86       103      43.6     1E+07
         1        87       103      43.5     1E+07
         1        88       103      43.4     1E+07
         1        89       103      43.2     1E+07
         1        89       102      43.1     1E+07
         1        90       102      43.3     1E+07
         1        91       102      44.1     1E+07
         1        91       101      43.9     1E+07
         1        92       101      44.8     1E+07
         1        92       100      46.2     1E+07
         1        93       100      42.9     1E+07
         1        93        99      43.1     1E+07
         1        94        99      42.9     1E+07
         1        95        99        43     1E+07
         1        96        99      42.7     1E+07
         1        97        99      41.9     1E+07
         1        98        99      41.7     1E+07
         1        98        98      41.7     1E+07
         1        99        98      41.6     1E+07
         1       100        98      41.5     1E+07
         1       100        97      41.2     1E+07
         1       101        97      41.1     1E+07
         1       112        85      71.4     1E+07
         1       112        86      68.4     1E+07
         1       112        87      65.5     1E+07
         1       112        88      64.3     1E+07
         1       112        89      61.1     1E+07
         1       112        90      58.5     1E+07
         1       112        91      52.6     1E+07
         1       112        92      50.4     1E+07
         1       112        93      49.2     1E+07
         1       113        93      48.1     1E+07
         1       113        94      49.2     1E+07
         1       114        94        47     1E+07
         1       115        94      46.6     1E+07
         1       115        95      44.4     1E+07
         1       116        94      40.3     1E+07
         1       130        52      75.2     1E+07
         1       131        52      59.7     1E+07
         1       132        52      58.1     1E+07
         1       132        53      56.9     1E+07
         1       133        53      56.3     1E+07
         1       133        54      55.2     1E+07
         1       133        55      53.7     1E+07
         1       133        56      51.7     1E+07
         1       133        57      64.3     1E+07
         1       134        57      50.5     1E+07
         1       134        58      49.1     1E+07
         1       134        59      46.7     1E+07
         1       134        60      61.3     1E+07
         1       135        60      45.6     1E+07
         1       135        61      44.6     1E+07
         1       135        62      53.6     1E+07
         1       136        62      42.4     1E+07
         1       136        63      53.5     1E+07
         1       137        63      41.4     1E+07
         1       137        64      50.8     1E+07
         1       138        64      39.4     1E+07
         1       103        97      41.6     1E+07
         1       104        97      41.4     1E+07
         1       105        97      41.9     1E+07
         1       105        98      45.1     1E+07
         1       106        98      41.6     1E+07
         1       106        99      41.3     1E+07
         1       107        99        41     1E+07
         1       107       100      41.1     1E+07
         1       176        78      30.9     1E+07
         1       176        77        31     1E+07
         1       177        77      31.2     1E+07
         1       177        76        31     1E+07
         1       178        76      31.1     1E+07
         1       178        75      30.6     1E+07
         1       178        74      30.6     1E+07
         1       178        73      30.6     1E+07
         1       178        72      30.6     1E+07
         1       178        71      30.6     1E+07
         1       178        70      30.7     1E+07
         1       178        69      30.9     1E+07
         1       177        69      30.7     1E+07
         1       149        34      66.8     1E+07
         1       150        34      63.5     1E+07
         1       150        33        61     1E+07
         1       151        33      57.2     1E+07
         1       151        32      55.8     1E+07
         1       151        31      53.5     1E+07
         1       150        31      55.5     1E+07
         1       150        30      53.3     1E+07
         1       149        30      53.9     1E+07
         1       149        29      52.4     1E+07
         1       149        28      50.7     1E+07
         1       149        27      49.5     1E+07
         1       148        27      50.3     1E+07
         1       148        26      49.7     1E+07
         1       148        25      48.4     1E+07
         1       148        24      47.3     1E+07
         1       147        24      47.6     1E+07
         1       147        23      47.3     1E+07
         1       146        23        47     1E+07
         1       146        22      45.8     1E+07
         1       177        68      30.5     1E+07
         1       177        67      30.5     1E+07
         1       178        67      30.8     1E+07
         1       178        66      30.9     1E+07
         1       179        66      30.5     1E+07
         1       179        65      30.6     1E+07
         1       179        64      30.6     1E+07
         1       180        64      30.9     1E+07
         1       180        63      30.5     1E+07
         1       180        62      30.5     1E+07
         1       181        62        31     1E+07
         1       181        61      30.9     1E+07
         1       180        61      30.7     1E+07
         1       180        60      30.9     1E+07
         1       179        60      30.5     1E+07
         1       178        60      30.6     1E+07
         1       178        59      30.6     1E+07
         1       179        59      30.4     1E+07
         1       179        58      30.6     1E+07
         1       180        58      30.4     1E+07
         1       180        57      30.1     1E+07
         1       179        57      29.9     1E+07
         1       179        56      29.9     1E+07
         1       178        56      29.4     1E+07
         1       177        56      29.1     1E+07
         1       177        55        29     1E+07
         1       176        55      29.4     1E+07
         1       176        54      29.1     1E+07