# SFR package for MODFLOW-NWT generated by Flopy 3.3.5
OPTIONS
TABFILES 3 3286
END
-881 75 0 0 1.48600000 0.00010000 1 746 1 0 
1 3 69 1 1 684.7339 113.2 0.023681743 10.0 1.05e-06
1 4 69 1 2 189.02254 107.6 0.07119256 10.0 1.05e-06
1 4 70 1 3 536.0862 94.8 0.019470315 10.0 1.05e-06
1 6 67 2 1 656.1986 109.1 0.027213486 10.0 1.05e-06
1 6 68 2 2 656.3221 104.8 0.027231675 10.0 1.05e-06
1 6 69 2 3 657.32324 102.8 0.022727946 10.0 1.05e-06
1 6 70 2 4 440.73627 96.2 0.034004584 10.0 1.05e-06
1 5 70 2 5 660.81024 95.4 0.01811413 10.0 1.05e-06
1 4 70 2 6 218.98393 94.8 0.015837403 10.0 1.05e-06
1 4 70 3 1 273.32303 94.8 0.0044832975 10.0 1.05e-06
1 4 71 3 2 411.93524 93.5 0.0051198476 10.0 1.05e-06
1 3 71 3 3 767.4794 92.8 0.0020847642 10.0 1.05e-06
1 2 71 3 4 127.275826 95.5 0.011472605 10.0 1.05e-06
1 2 72 3 5 689.28503 92.6 0.003534077 10.0 1.05e-06
1 2 73 3 6 672.9607 91.3 0.0028672446 10.0 1.05e-06
1 2 74 3 7 406.0727 89.6 0.001839099 10.0 1.05e-06
1 1 73 4 1 323.0261 91.8 0.00622251 10.0 1.05e-06
1 1 74 4 2 487.3799 92.8 0.0031692064 10.0 1.05e-06
1 2 74 4 3 135.37566 89.6 0.0026329125 10.0 1.05e-06
1 3 76 5 1 173.91502 89.0 1e-04 10.0 1.05e-06
1 2 77 5 2 621.94354 88.0 0.00027781216 10.0 1.05e-06
1 2 74 6 1 300.97815 89.6 1e-04 10.0 1.05e-06
1 2 75 6 2 80.79775 88.8 0.0005848179 10.0 1.05e-06
1 1 75 6 3 607.47705 92.0 0.00014653392 10.0 1.05e-06
1 1 76 6 4 689.1346 88.3 1e-04 10.0 1.05e-06
1 1 77 6 5 278.60583 91.8 0.00017520679 10.0 1.05e-06
1 2 77 6 6 432.41647 88.0 0.00046822932 10.0 1.05e-06
1 18 67 7 1 823.0211 92.5 0.0014935455 10.0 1.05e-06
1 17 67 7 2 687.1223 88.6 0.0010304252 10.0 1.05e-06
1 16 67 7 3 182.7174 89.6 0.0040096208 10.0 1.05e-06
1 16 68 7 4 717.34344 89.8 0.0012400008 10.0 1.05e-06
1 16 69 7 5 375.44995 89.0 0.0018011609 10.0 1.05e-06
1 15 69 7 6 455.34344 86.8 0.001237068 10.0 1.05e-06
1 15 70 7 7 236.68082 87.2 0.002466967 10.0 1.05e-06
1 16 70 7 8 480.64276 86.1 0.0019503784 10.0 1.05e-06
1 16 71 7 9 671.03296 84.8 0.0011543256 10.0 1.05e-06
1 16 72 7 10 280.58093 84.2 0.0029824404 10.0 1.05e-06
1 15 72 7 11 747.47943 83.4 0.0013860686 10.0 1.05e-06
1 14 72 7 12 525.3572 82.1 0.001842794 10.0 1.05e-06
1 14 73 7 13 664.0221 79.8 0.0016254891 10.0 1.05e-06
1 14 74 7 14 662.01355 80.7 0.0013755929 10.0 1.05e-06
1 14 75 7 15 456.76852 80.1 0.0020823337 10.0 1.05e-06
1 13 75 7 16 711.7493 78.3 0.0016884974 10.0 1.05e-06
1 12 75 7 17 764.6915 78.3 0.0013236136 10.0 1.05e-06
1 11 75 7 18 478.78098 76.6 0.001558523 10.0 1.05e-06
1 11 76 7 19 437.94217 75.9 0.0012124832 10.0 1.05e-06
1 2 77 8 1 151.16728 88.0 0.0056069777 10.0 1.05e-06
1 2 78 8 2 590.38574 85.9 0.0015969621 10.0 1.05e-06
1 3 78 8 3 234.48534 86.1 0.0042937766 10.0 1.05e-06
1 3 79 8 4 646.3824 85.6 0.0019643698 10.0 1.05e-06
1 4 79 8 5 464.50095 85.3 0.0019513804 10.0 1.05e-06
1 4 80 8 6 328.5187 85.2 0.003692064 10.0 1.05e-06
1 5 80 8 7 732.6516 84.7 0.0013181526 10.0 1.05e-06
1 5 81 8 8 112.27437 89.0 0.01031435 10.0 1.05e-06
1 6 81 8 9 900.8861 83.5 0.0013810412 10.0 1.05e-06
1 6 82 8 10 187.62302 87.3 0.0040114243 10.0 1.05e-06
1 7 82 8 11 470.85403 73.6 0.0027432267 10.0 1.05e-06
1 7 83 8 12 659.21027 67.9 0.0016467612 10.0 1.05e-06
1 7 84 8 13 290.54218 68.0 0.0011429945 10.0 1.05e-06
1 11 76 9 1 281.1944 75.9 0.0013143927 10.0 1.05e-06
1 11 77 9 2 314.3022 76.1 0.0019307133 10.0 1.05e-06
1 10 77 9 3 663.4137 76.1 0.0012868199 10.0 1.05e-06
1 9 77 9 4 712.05194 76.0 0.0012295393 10.0 1.05e-06
1 9 78 9 5 698.5403 73.9 0.001173333 10.0 1.05e-06
1 10 78 9 6 622.02637 73.1 0.0012917761 10.0 1.05e-06
1 10 79 9 7 672.5971 74.5 0.0013141985 10.0 1.05e-06
1 10 80 9 8 751.5787 71.8 0.0012358784 10.0 1.05e-06
1 9 80 9 9 744.9938 70.6 0.0010221852 10.0 1.05e-06
1 9 81 9 10 481.96368 69.9 0.0009320824 10.0 1.05e-06
1 8 81 9 11 241.83252 70.2 0.0030167664 10.0 1.05e-06
1 8 82 9 12 933.61566 68.6 0.0008246225 10.0 1.05e-06
1 8 83 9 13 306.81122 68.3 0.001479587 10.0 1.05e-06
1 7 83 9 14 424.59515 67.9 0.0013165133 10.0 1.05e-06
1 7 84 9 15 476.03845 68.0 0.00062065775 10.0 1.05e-06
1 7 84 10 1 77.41208 68.0 1e-04 10.0 1.05e-06
1 6 84 10 2 717.2355 65.6 1e-04 10.0 1.05e-06
1 5 84 10 3 145.62569 64.7 1e-04 10.0 1.05e-06
1 5 85 10 4 599.6821 65.5 1e-04 10.0 1.05e-06
1 4 85 10 5 374.80493 65.5 1e-04 10.0 1.05e-06
1 4 85 11 1 77.51299 65.5 1e-04 10.0 1.05e-06
1 1 82 12 1 706.1948 66.9 0.00037339068 10.0 1.05e-06
1 1 83 12 2 100.2925 67.0 0.0030240132 10.0 1.05e-06
1 2 83 12 3 827.30945 67.1 0.00038730036 10.0 1.05e-06
1 3 83 12 4 152.68939 67.5 0.0017938543 10.0 1.05e-06
1 3 84 12 5 685.0432 66.4 0.0004907204 10.0 1.05e-06
1 4 84 12 6 343.11948 66.1 0.0008959061 10.0 1.05e-06
1 4 85 12 7 597.0739 65.5 0.00032695677 10.0 1.05e-06
1 1 91 13 1 662.50586 67.0 0.012040448 10.0 1.05e-06
1 2 91 13 2 662.2091 64.0 0.009507732 10.0 1.05e-06
1 3 91 13 3 383.3827 63.7 0.006021575 10.0 1.05e-06
1 4 85 14 1 108.07083 65.5 1e-04 10.0 1.05e-06
1 4 86 14 2 730.1215 65.2 1e-04 10.0 1.05e-06
1 4 87 14 3 662.3332 65.2 1e-04 10.0 1.05e-06
1 4 88 14 4 660.0695 64.5 1e-04 10.0 1.05e-06
1 4 89 14 5 661.5014 64.0 1e-04 10.0 1.05e-06
1 4 90 14 6 673.45325 63.7 1e-04 10.0 1.05e-06
1 4 91 14 7 149.61926 63.6 1e-04 10.0 1.05e-06
1 3 91 14 8 418.72845 63.7 1e-04 10.0 1.05e-06
1 3 91 15 1 168.4066 63.7 1e-04 10.0 1.05e-06
1 3 91 16 1 129.33324 63.7 0.00023580121 10.0 1.05e-06
1 3 92 16 2 562.7651 63.9 1e-04 10.0 1.05e-06
1 4 92 16 3 135.305 63.8 0.00032505038 10.0 1.05e-06
1 4 93 16 4 862.7998 63.2 1e-04 10.0 1.05e-06
1 4 94 16 5 37.558136 63.6 0.0010179809 10.0 1.05e-06
1 5 94 16 6 830.11304 62.6 1e-04 10.0 1.05e-06
1 6 94 16 7 199.21913 62.9 0.00022544681 10.0 1.05e-06
1 6 95 16 8 820.045 62.4 1e-04 10.0 1.05e-06
1 7 95 16 9 146.89232 62.0 0.0002787391 10.0 1.05e-06
1 7 96 16 10 782.30676 61.8 1e-04 10.0 1.05e-06
1 7 97 16 11 275.57877 61.8 0.00012156516 10.0 1.05e-06
1 8 97 16 12 484.68863 61.1 0.00011442579 10.0 1.05e-06
1 8 98 16 13 773.9425 60.5 1e-04 10.0 1.05e-06
1 9 99 16 14 741.35345 59.4 1e-04 10.0 1.05e-06
1 9 100 16 15 291.3712 58.5 0.0017330663 10.0 1.05e-06
1 25 129 17 1 251.26364 105.6 0.059476294 10.0 1.05e-06
1 26 129 17 2 100.237625 104.9 0.048660614 10.0 1.05e-06
1 1 120 18 1 101.72196 103.9 0.013511737 10.0 1.05e-06
1 1 119 18 2 716.80884 106.1 0.0025853573 10.0 1.05e-06
1 2 119 18 3 386.84555 101.7 0.0035144503 10.0 1.05e-06
1 2 118 18 4 422.817 102.9 0.004351156 10.0 1.05e-06
1 3 118 18 5 672.8189 102.7 0.0020610048 10.0 1.05e-06
1 3 117 18 6 153.00288 101.9 0.010647043 10.0 1.05e-06
1 4 117 18 7 817.1448 98.2 0.0019389568 10.0 1.05e-06
1 5 117 18 8 126.429344 99.9 0.010388518 10.0 1.05e-06
1 5 116 18 9 655.75775 97.3 0.0030627453 10.0 1.05e-06
1 6 116 18 10 540.33093 95.8 0.002657799 10.0 1.05e-06
1 6 115 18 11 314.91562 95.0 0.004455036 10.0 1.05e-06
1 7 115 18 12 520.5998 94.4 0.0035059922 10.0 1.05e-06
1 7 114 18 13 566.3868 92.3 0.002586541 10.0 1.05e-06
1 8 114 18 14 306.06543 90.8 0.004562031 10.0 1.05e-06
1 8 113 18 15 525.47107 90.0 0.003996333 10.0 1.05e-06
1 9 113 18 16 725.1326 88.6 0.0021152808 10.0 1.05e-06
1 10 113 18 17 188.33801 90.3 0.0064637745 10.0 1.05e-06
1 10 112 18 18 536.65344 85.9 0.003908731 10.0 1.05e-06
1 11 112 18 19 712.56494 85.9 0.0025815903 10.0 1.05e-06
1 12 112 18 20 382.95566 84.1 0.0031243993 10.0 1.05e-06
1 12 111 18 21 329.6093 83.8 0.005277052 10.0 1.05e-06
1 13 111 18 22 706.2481 78.3 0.0032393667 10.0 1.05e-06
1 13 110 18 23 656.22046 76.8 0.0033583117 10.0 1.05e-06
1 13 109 18 24 656.22046 75.9 0.0033582768 10.0 1.05e-06
1 13 108 18 25 656.20685 74.2 0.0033582565 10.0 1.05e-06
1 13 107 18 26 656.186 74.0 0.0033583085 10.0 1.05e-06
1 13 106 18 27 656.186 72.9 0.0033606824 10.0 1.05e-06
1 13 105 18 28 657.1131 71.7 0.0033577075 10.0 1.05e-06
1 13 104 18 29 656.8783 63.8 0.0035143758 10.0 1.05e-06
1 13 103 18 30 717.931 61.3 0.0021526066 10.0 1.05e-06
1 13 102 18 31 202.4272 57.8 0.0016791273 10.0 1.05e-06
1 1 101 19 1 659.50165 59.2 1e-04 10.0 1.05e-06
1 2 101 19 2 659.50165 59.0 1e-04 10.0 1.05e-06
1 3 101 19 3 662.88666 58.8 1e-04 10.0 1.05e-06
1 4 101 19 4 666.5329 58.6 1e-04 10.0 1.05e-06
1 5 101 19 5 666.2304 58.9 1e-04 10.0 1.05e-06
1 6 101 19 6 665.7526 59.2 1e-04 10.0 1.05e-06
1 7 101 19 7 97.35133 59.2 1e-04 10.0 1.05e-06
1 7 100 19 8 567.1615 59.3 1e-04 10.0 1.05e-06
1 8 100 19 9 659.684 58.5 1e-04 10.0 1.05e-06
1 9 100 19 10 553.44745 58.5 0.00022820866 10.0 1.05e-06
1 9 100 20 1 211.8714 58.5 0.0029188837 10.0 1.05e-06
1 26 129 21 1 438.64536 104.9 0.0019446684 10.0 1.05e-06
1 26 128 21 2 168.79921 104.1 0.004896409 10.0 1.05e-06
1 14 102 22 1 179.98395 57.4 0.00045930315 10.0 1.05e-06
1 9 100 23 1 105.094215 58.5 0.008863313 10.0 1.05e-06
1 10 100 23 2 669.98334 58.6 0.0021113362 10.0 1.05e-06
1 11 100 23 3 507.05795 58.5 0.0017517179 10.0 1.05e-06
1 11 101 23 4 232.02316 57.9 0.0052442155 10.0 1.05e-06
1 12 101 23 5 780.44684 58.0 0.0015193215 10.0 1.05e-06
1 13 101 23 6 206.20389 58.0 0.004464271 10.0 1.05e-06
1 13 102 23 7 559.7764 57.8 0.0015469308 10.0 1.05e-06
1 14 102 23 8 160.76009 57.4 0.001716025 10.0 1.05e-06
1 85 88 24 1 158.6506 97.6 0.019788414 10.0 1.05e-06
1 85 89 24 2 687.31665 87.5 0.004397442 10.0 1.05e-06
1 86 89 24 3 127.12104 86.8 0.026763327 10.0 1.05e-06
1 86 90 24 4 789.6446 80.4 0.005339967 10.0 1.05e-06
1 86 91 24 5 346.5981 76.3 0.0059266826 10.0 1.05e-06
1 87 91 24 6 206.92865 76.2 0.00463189 10.0 1.05e-06
1 82 90 25 1 68.31728 104.7 0.030264605 10.0 1.05e-06
1 83 90 25 2 648.3586 95.4 0.0037485075 10.0 1.05e-06
1 83 91 25 3 194.06557 93.2 0.013310993 10.0 1.05e-06
1 84 91 25 4 701.3323 84.6 0.005637361 10.0 1.05e-06
1 85 91 25 5 669.0977 79.4 0.0057243835 10.0 1.05e-06
1 86 91 25 6 658.52704 76.3 0.003174328 10.0 1.05e-06
1 63 85 26 1 613.94104 77.8 0.0059093894 10.0 1.05e-06
1 62 85 26 2 835.85913 76.7 0.0032240837 10.0 1.05e-06
1 61 85 26 3 241.04813 78.0 0.009416369 10.0 1.05e-06
1 61 86 26 4 665.9914 76.6 0.00498454 10.0 1.05e-06
1 61 87 26 5 660.58624 74.6 0.0040097274 10.0 1.05e-06
1 61 88 26 6 397.89496 73.8 0.0030175166 10.0 1.05e-06
1 57 85 27 1 397.74194 85.1 0.014853868 10.0 1.05e-06
1 58 85 27 2 396.2169 84.5 0.018599333 10.0 1.05e-06
1 58 86 27 3 594.13025 82.9 0.012915867 10.0 1.05e-06
1 59 86 27 4 437.11578 81.8 0.015154422 10.0 1.05e-06
1 59 87 27 5 453.09528 81.3 0.01933299 10.0 1.05e-06
1 60 87 27 6 724.0925 79.3 0.01394468 10.0 1.05e-06
1 61 88 27 7 632.84424 73.8 0.007765058 10.0 1.05e-06
1 40 129 28 1 312.4829 95.5 0.02501932 10.0 1.05e-06
1 41 129 28 2 477.21207 95.5 0.025429605 10.0 1.05e-06
1 41 128 28 3 748.55707 94.8 0.011072797 10.0 1.05e-06
1 42 127 28 4 88.6635 92.6 0.080488935 10.0 1.05e-06
1 41 127 28 5 632.1758 90.6 0.020347068 10.0 1.05e-06
1 41 126 28 6 667.08813 89.7 0.014079393 10.0 1.05e-06
1 40 126 28 7 281.6025 91.3 0.03579497 10.0 1.05e-06
1 40 125 28 8 736.5579 88.5 0.012278202 10.0 1.05e-06
1 40 124 28 9 176.92259 88.1 0.044709824 10.0 1.05e-06
1 39 124 28 10 622.0716 88.1 0.019260878 10.0 1.05e-06
1 39 123 28 11 588.17633 87.5 0.014210947 10.0 1.05e-06
1 38 123 28 12 256.10626 91.9 0.03954821 10.0 1.05e-06
1 38 122 28 13 766.9626 83.7 0.0113713965 10.0 1.05e-06
1 38 121 28 14 113.97507 83.1 0.08569753 10.0 1.05e-06
1 37 121 28 15 872.61273 82.5 0.017525174 10.0 1.05e-06
1 36 120 28 16 672.0775 81.5 0.021076307 10.0 1.05e-06
1 36 119 28 17 758.69885 79.4 0.011872792 10.0 1.05e-06
1 36 118 28 18 151.17174 79.8 0.06011746 10.0 1.05e-06
1 35 118 28 19 766.80005 78.3 0.009980446 10.0 1.05e-06
1 26 128 29 1 514.1144 104.1 0.0026149128 10.0 1.05e-06
1 26 127 29 2 658.3928 102.9 0.002292756 10.0 1.05e-06
1 26 126 29 3 658.16956 101.2 0.0023208496 10.0 1.05e-06
1 26 125 29 4 674.07324 99.5 0.0013083239 10.0 1.05e-06
1 26 124 29 5 95.09421 103.2 0.00932703 10.0 1.05e-06
1 27 124 29 6 678.4692 96.8 0.0023119422 10.0 1.05e-06
1 28 125 29 7 689.5923 95.5 0.0023191022 10.0 1.05e-06
1 29 125 29 8 705.2048 94.0 0.0015118525 10.0 1.05e-06
1 30 125 29 9 224.66719 96.8 0.003528366 10.0 1.05e-06
1 30 124 29 10 466.70486 92.6 0.002771831 10.0 1.05e-06
1 31 124 29 11 661.5508 90.5 0.0022954515 10.0 1.05e-06
1 32 124 29 12 662.8813 90.4 0.002318144 10.0 1.05e-06
1 33 124 29 13 677.33514 90.1 0.0021237447 10.0 1.05e-06
1 33 123 29 14 577.262 90.0 0.0017396772 10.0 1.05e-06
1 34 123 29 15 298.60983 89.7 0.0042603277 10.0 1.05e-06
1 34 122 29 16 810.9363 86.8 0.0020743546 10.0 1.05e-06
1 34 121 29 17 656.19476 85.7 0.0022931432 10.0 1.05e-06
1 34 120 29 18 656.19476 84.4 0.002293167 10.0 1.05e-06
1 34 119 29 19 656.207 81.5 0.0020375415 10.0 1.05e-06
1 34 118 29 20 509.91946 77.1 0.001267283 10.0 1.05e-06
1 14 102 30 1 567.7882 57.4 0.00017889109 10.0 1.05e-06
1 15 102 30 2 129.84683 57.6 0.0008010859 10.0 1.05e-06
1 15 103 30 3 584.5897 57.5 0.00032875035 10.0 1.05e-06
1 16 103 30 4 735.4 57.3 0.0001868449 10.0 1.05e-06
1 17 103 30 5 208.35246 57.5 0.00048302388 10.0 1.05e-06
1 17 104 30 6 482.87405 57.8 0.0003498335 10.0 1.05e-06
1 18 104 30 7 677.36804 57.7 0.00028988626 10.0 1.05e-06
1 19 104 30 8 671.3016 57.1 0.00028961588 10.0 1.05e-06
1 20 104 30 9 664.0425 57.0 0.00017261592 10.0 1.05e-06
1 21 104 30 10 123.23831 56.8 0.0019199791 10.0 1.05e-06
1 87 91 31 1 175.69353 76.2 0.0053753285 10.0 1.05e-06
1 87 92 31 2 695.1129 73.0 0.002163342 10.0 1.05e-06
1 87 93 31 3 691.45593 70.4 0.0016622465 10.0 1.05e-06
1 87 94 31 4 368.33643 70.0 0.0021644644 10.0 1.05e-06
1 88 94 31 5 366.7795 69.5 0.0022972147 10.0 1.05e-06
1 88 95 31 6 410.12473 67.3 0.0015660775 10.0 1.05e-06
1 75 88 32 1 240.48912 94.8 0.0016587856 10.0 1.05e-06
1 75 89 32 2 321.66943 90.7 0.0017391562 10.0 1.05e-06
1 74 89 32 3 466.68488 85.6 0.0017599595 10.0 1.05e-06
1 74 90 32 4 690.7581 82.0 0.0013868104 10.0 1.05e-06
1 74 91 32 5 659.1875 77.6 0.001451149 10.0 1.05e-06
1 74 92 32 6 688.8254 74.2 0.0011765031 10.0 1.05e-06
1 74 93 32 7 453.19885 73.2 0.0018987603 10.0 1.05e-06
1 75 93 32 8 759.4417 72.5 0.001382212 10.0 1.05e-06
1 76 94 32 9 719.8107 71.8 0.0014142655 10.0 1.05e-06
1 77 94 32 10 714.76166 72.4 0.00096086727 10.0 1.05e-06
1 78 94 32 11 253.06592 73.0 0.0019737044 10.0 1.05e-06
1 78 95 32 12 450.79764 70.6 0.0019142285 10.0 1.05e-06
1 79 95 32 13 765.24475 71.1 0.000919394 10.0 1.05e-06
1 80 95 32 14 226.21481 71.9 0.0021744028 10.0 1.05e-06
1 80 96 32 15 466.94614 69.4 0.0018876431 10.0 1.05e-06
1 81 96 32 16 775.164 69.4 0.00090454216 10.0 1.05e-06
1 81 97 32 17 212.9243 69.2 0.0031430419 10.0 1.05e-06
1 82 97 32 18 730.1561 68.6 0.0013524042 10.0 1.05e-06
1 83 97 32 19 661.38245 68.1 0.0014946577 10.0 1.05e-06
1 84 97 32 20 731.66974 68.3 0.00083590706 10.0 1.05e-06
1 85 97 32 21 130.20755 68.1 0.004514924 10.0 1.05e-06
1 85 96 32 22 698.23083 68.1 0.0013306009 10.0 1.05e-06
1 86 96 32 23 611.0107 67.8 0.00082378153 10.0 1.05e-06
1 86 95 32 24 98.296486 67.7 0.0056868657 10.0 1.05e-06
1 87 95 32 25 689.4452 67.3 0.0011691523 10.0 1.05e-06
1 88 95 32 26 446.46518 67.3 0.0011519756 10.0 1.05e-06
1 61 88 33 1 259.4682 73.8 0.0028337936 10.0 1.05e-06
1 61 89 33 2 671.39124 73.5 0.0008870301 10.0 1.05e-06
1 61 90 33 3 82.56432 74.7 0.0066026347 10.0 1.05e-06
1 62 90 33 4 607.58246 71.5 0.001715077 10.0 1.05e-06
1 62 91 33 5 711.6475 70.4 0.0011841533 10.0 1.05e-06
1 62 92 33 6 355.20563 68.7 0.0024166827 10.0 1.05e-06
1 63 92 33 7 731.54846 67.8 0.0014998269 10.0 1.05e-06
1 64 92 33 8 657.4953 73.8 0.0015783279 10.0 1.05e-06
1 65 92 33 9 656.28143 74.3 0.0010869124 10.0 1.05e-06
1 66 92 33 10 246.7789 74.6 0.0023989184 10.0 1.05e-06
1 66 93 33 11 502.69226 67.3 0.0013704048 10.0 1.05e-06
1 32 82 34 1 46.16813 78.2 0.011197795 10.0 1.05e-06
1 33 82 34 2 764.52124 78.5 0.001064698 10.0 1.05e-06
1 34 82 34 3 511.90497 77.9 0.0009243883 10.0 1.05e-06
1 34 83 34 4 230.12827 79.2 0.0027573036 10.0 1.05e-06
1 35 83 34 5 764.89734 78.2 0.0008739823 10.0 1.05e-06
1 36 83 34 6 283.40204 78.3 0.0017767635 10.0 1.05e-06
1 36 84 34 7 506.20786 77.4 0.0014860112 10.0 1.05e-06
1 37 84 34 8 673.3811 77.7 0.0007477767 10.0 1.05e-06
1 37 85 34 9 116.228775 78.0 0.004970011 10.0 1.05e-06
1 38 85 34 10 789.60986 76.4 0.0008587932 10.0 1.05e-06
1 39 85 34 11 273.7503 76.9 0.0018394076 10.0 1.05e-06
1 39 86 34 12 515.8596 75.9 0.001432314 10.0 1.05e-06
1 40 86 34 13 642.7832 75.4 0.00080570305 10.0 1.05e-06
1 40 87 34 14 169.33444 75.1 0.0038368083 10.0 1.05e-06
1 41 87 34 15 849.4805 74.2 0.0010362758 10.0 1.05e-06
1 42 88 34 16 530.93054 74.2 0.00070012716 10.0 1.05e-06
1 41 88 34 17 51.96994 74.5 0.0021768208 10.0 1.05e-06
1 42 88 34 18 125.430115 74.2 0.0043490445 10.0 1.05e-06
1 42 89 34 19 729.98206 74.4 0.0008704549 10.0 1.05e-06
1 43 89 34 20 266.4291 78.2 0.0024232888 10.0 1.05e-06
1 43 90 34 21 746.00415 74.5 0.00085470674 10.0 1.05e-06
1 43 91 34 22 253.85304 74.3 0.0019301903 10.0 1.05e-06
1 44 91 34 23 514.5029 74.2 0.0014090528 10.0 1.05e-06
1 44 92 34 24 622.32404 73.9 0.0009171553 10.0 1.05e-06
1 45 92 34 25 272.70856 73.8 0.0021456096 10.0 1.05e-06
1 45 93 34 26 644.8409 74.3 0.0009095555 10.0 1.05e-06
1 46 93 34 27 274.89026 74.6 0.0021124368 10.0 1.05e-06
1 46 94 34 28 635.6992 73.8 0.0009563469 10.0 1.05e-06
1 47 94 34 29 317.63876 73.5 0.001784988 10.0 1.05e-06
1 47 95 34 30 571.4583 71.9 0.0013969312 10.0 1.05e-06
1 48 95 34 31 680.353 71.7 0.0012556061 10.0 1.05e-06
1 49 95 34 32 659.2237 71.1 0.0008293834 10.0 1.05e-06
1 50 95 34 33 198.14574 76.3 0.0027702095 10.0 1.05e-06
1 50 96 34 34 662.60394 70.7 0.0010550795 10.0 1.05e-06
1 51 96 34 35 433.66965 69.3 0.0011036093 10.0 1.05e-06
1 51 97 34 36 316.83618 69.2 0.0021465137 10.0 1.05e-06
1 52 97 34 37 749.63055 67.6 0.0007582967 10.0 1.05e-06
1 52 98 34 38 141.75711 54.5 0.0038825558 10.0 1.05e-06
1 53 98 34 39 721.3022 58.8 0.0008696607 10.0 1.05e-06
1 53 99 34 40 262.3625 50.7 0.0023392993 10.0 1.05e-06
1 54 99 34 41 700.0631 63.6 0.00079823093 10.0 1.05e-06
1 54 100 34 42 176.22316 51.0 0.003249953 10.0 1.05e-06
1 55 100 34 43 721.86505 54.5 0.0012329803 10.0 1.05e-06
1 56 100 34 44 673.8355 71.3 0.0012537156 10.0 1.05e-06
1 57 100 34 45 650.9131 70.8 0.0006868222 10.0 1.05e-06
1 57 99 34 46 50.133427 71.9 0.01000486 10.0 1.05e-06
1 58 99 34 47 736.4002 71.2 0.001135597 10.0 1.05e-06
1 59 99 34 48 574.94635 71.3 0.0008564944 10.0 1.05e-06
1 59 98 34 49 197.25784 71.2 0.003324131 10.0 1.05e-06
1 60 98 34 50 830.97424 70.7 0.0006904196 10.0 1.05e-06
1 61 98 34 51 68.691696 70.6 0.008439003 10.0 1.05e-06
1 61 97 34 52 840.3314 70.3 0.0007116549 10.0 1.05e-06
1 62 97 34 53 97.445946 70.6 0.0062238914 10.0 1.05e-06
1 62 96 34 54 853.6119 70.8 0.0006894558 10.0 1.05e-06
1 62 95 34 55 69.27233 71.2 0.008756673 10.0 1.05e-06
1 63 95 34 56 881.9418 70.7 0.0012287983 10.0 1.05e-06
1 64 94 34 57 817.47577 69.3 0.00084036856 10.0 1.05e-06
1 65 94 34 58 259.79572 69.6 0.0018038269 10.0 1.05e-06
1 65 93 34 59 475.0638 66.6 0.0013213522 10.0 1.05e-06
1 66 93 34 60 509.28992 67.3 0.001210696 10.0 1.05e-06
1 34 118 35 1 39.735706 77.1 0.0063748905 10.0 1.05e-06
1 35 118 35 2 123.79193 78.3 0.009827544 10.0 1.05e-06
1 35 117 35 3 661.5789 85.2 0.0027701973 10.0 1.05e-06
1 35 116 35 4 521.5441 84.7 0.0019605157 10.0 1.05e-06
1 34 116 35 5 138.53946 74.2 0.0055072047 10.0 1.05e-06
1 34 115 35 6 354.0014 75.7 0.0047880104 10.0 1.05e-06
1 35 115 35 7 740.201 73.8 0.002672313 10.0 1.05e-06
1 36 115 35 8 536.75024 70.1 0.001922882 10.0 1.05e-06
1 36 114 35 9 129.5387 65.8 0.009622213 10.0 1.05e-06
1 37 114 35 10 675.12054 64.0 0.003071226 10.0 1.05e-06
1 38 114 35 11 663.4168 60.4 0.0032696845 10.0 1.05e-06
1 39 114 35 12 736.9105 58.0 0.0018214975 10.0 1.05e-06
1 40 114 35 13 129.61354 58.0 0.011604831 10.0 1.05e-06
1 40 113 35 14 841.404 56.5 0.0016147397 10.0 1.05e-06
1 41 113 35 15 35.6866 54.4 0.019690646 10.0 1.05e-06
1 41 112 35 16 417.94418 51.6 0.0015490366 10.0 1.05e-06
1 21 104 36 1 536.69653 56.8 0.00093269255 10.0 1.05e-06
1 22 104 36 2 691.8815 56.3 0.00063581014 10.0 1.05e-06
1 23 104 36 3 387.7972 56.2 0.0007396397 10.0 1.05e-06
1 23 103 36 4 316.1829 55.6 0.0006250579 10.0 1.05e-06
1 93 81 37 1 662.2739 83.9 0.00547942 10.0 1.05e-06
1 93 82 37 2 657.4529 83.7 0.005712098 10.0 1.05e-06
1 93 83 37 3 708.2999 82.3 0.0054817763 10.0 1.05e-06
1 93 84 37 4 703.7506 81.2 0.0048789084 10.0 1.05e-06
1 93 85 37 5 544.9353 80.3 0.006685731 10.0 1.05e-06
1 94 85 37 6 780.0336 78.4 0.0030797224 10.0 1.05e-06
1 95 85 37 7 93.61505 77.6 0.021831708 10.0 1.05e-06
1 95 86 37 8 649.6517 77.6 0.0056842673 10.0 1.05e-06
1 96 86 37 9 693.3201 73.9 0.004189402 10.0 1.05e-06
1 97 86 37 10 363.00546 72.5 0.008390387 10.0 1.05e-06
1 97 87 37 11 744.65594 70.9 0.0056263683 10.0 1.05e-06
1 98 88 37 12 779.03046 66.3 0.0043905787 10.0 1.05e-06
1 98 89 37 13 464.87747 65.9 0.0042644865 10.0 1.05e-06
1 99 89 37 14 256.0923 63.5 0.0034705745 10.0 1.05e-06
1 99 90 37 15 67.13626 60.9 0.022482745 10.0 1.05e-06
1 98 90 37 16 481.79352 59.7 0.0039974637 10.0 1.05e-06
1 99 90 37 17 218.62381 60.9 0.011123676 10.0 1.05e-06
1 99 91 37 18 665.7935 56.6 0.0058924905 10.0 1.05e-06
1 99 92 37 19 760.9652 53.5 0.0031169632 10.0 1.05e-06
1 100 92 37 20 101.632996 54.6 0.022726934 10.0 1.05e-06
1 100 93 37 21 738.38245 52.0 0.004026403 10.0 1.05e-06
1 101 93 37 22 342.82697 51.5 0.004566016 10.0 1.05e-06
1 88 95 38 1 226.07268 67.3 0.003436077 10.0 1.05e-06
1 89 95 38 2 663.1241 66.8 0.0017520672 10.0 1.05e-06
1 90 95 38 3 666.8175 66.6 0.0017536589 10.0 1.05e-06
1 91 95 38 4 671.7463 66.2 0.0017378518 10.0 1.05e-06
1 92 95 38 5 664.5566 65.1 0.0018780072 10.0 1.05e-06
1 93 95 38 6 764.0616 64.8 0.00127127 10.0 1.05e-06
1 94 95 38 7 347.80618 66.8 0.0019289083 10.0 1.05e-06
1 94 94 38 8 420.14865 66.6 0.0022665483 10.0 1.05e-06
1 95 94 38 9 669.9234 65.7 0.001730565 10.0 1.05e-06
1 96 94 38 10 657.1656 65.5 0.0017481453 10.0 1.05e-06
1 97 94 38 11 657.87427 65.6 0.0017479714 10.0 1.05e-06
1 98 94 38 12 658.4534 64.9 0.0017607353 10.0 1.05e-06
1 99 94 38 13 668.6541 57.6 0.0017757871 10.0 1.05e-06
1 100 94 38 14 690.53235 57.5 0.0009409086 10.0 1.05e-06
1 101 94 38 15 53.202835 54.1 0.0062363064 10.0 1.05e-06
1 101 93 38 16 326.59045 51.5 0.0027802123 10.0 1.05e-06
1 66 93 39 1 293.79388 67.3 0.0032133728 10.0 1.05e-06
1 66 94 39 2 656.6653 66.1 0.0019876831 10.0 1.05e-06
1 66 95 39 3 657.41174 64.8 0.001985526 10.0 1.05e-06
1 66 96 39 4 656.7311 63.6 0.0019865537 10.0 1.05e-06
1 66 97 39 5 656.7311 63.8 0.0019874582 10.0 1.05e-06
1 66 98 39 6 657.3294 63.5 0.0019865325 10.0 1.05e-06
1 66 99 39 7 657.3145 63.1 0.0020292383 10.0 1.05e-06
1 66 100 39 8 685.561 50.7 0.004223576 10.0 1.05e-06
1 41 112 40 1 182.17708 51.6 0.00013598595 10.0 1.05e-06
1 23 103 41 1 376.22357 55.6 0.0005050921 10.0 1.05e-06
1 24 103 41 2 662.81384 55.8 0.00036741898 10.0 1.05e-06
1 25 103 41 3 668.7677 55.3 0.0003681533 10.0 1.05e-06
1 26 103 41 4 677.4598 55.4 0.00037430308 10.0 1.05e-06
1 27 103 41 5 709.0457 55.0 0.00037166497 10.0 1.05e-06
1 28 104 41 6 731.876 54.8 0.00034736222 10.0 1.05e-06
1 29 104 41 7 658.1876 54.3 0.00021111807 10.0 1.05e-06
1 29 105 41 8 101.59513 54.0 0.001577958 10.0 1.05e-06
1 30 105 41 9 774.9676 53.7 0.00034417378 10.0 1.05e-06
1 31 105 41 10 683.4295 53.6 0.00020624779 10.0 1.05e-06
1 32 105 41 11 87.292656 53.1 0.001609502 10.0 1.05e-06
1 32 106 41 12 680.92395 52.7 0.00031115857 10.0 1.05e-06
1 33 106 41 13 477.57266 52.7 0.00037448507 10.0 1.05e-06
1 33 107 41 14 500.31375 52.2 0.0002874419 10.0 1.05e-06
1 34 107 41 15 286.01987 51.7 0.0006637694 10.0 1.05e-06
1 34 108 41 16 752.0536 51.7 0.0002349969 10.0 1.05e-06
1 35 108 41 17 214.27731 51.8 0.0008628015 10.0 1.05e-06
1 35 109 41 18 796.6079 51.3 0.000200474 10.0 1.05e-06
1 35 110 41 19 76.59983 51.8 0.0020152654 10.0 1.05e-06
1 36 110 41 20 767.46423 51.4 0.00029147844 10.0 1.05e-06
1 37 110 41 21 455.68488 51.7 0.0003307356 10.0 1.05e-06
1 37 111 41 22 368.37738 51.7 0.00054296973 10.0 1.05e-06
1 38 111 41 23 725.2855 51.3 0.00025683446 10.0 1.05e-06
1 39 111 41 24 293.25336 51.3 0.0004337781 10.0 1.05e-06
1 39 112 41 25 402.2912 51.7 0.0004830963 10.0 1.05e-06
1 40 112 41 26 660.3544 51.5 0.0002946985 10.0 1.05e-06
1 41 112 41 27 403.71613 51.6 0.00024425477 10.0 1.05e-06
1 101 93 42 1 334.02515 51.5 0.0031065221 10.0 1.05e-06
1 102 93 42 2 222.60344 51.1 0.0075839553 10.0 1.05e-06
1 102 94 42 3 683.0029 50.8 0.003759481 10.0 1.05e-06
1 102 95 42 4 694.4044 47.8 0.0027308124 10.0 1.05e-06
1 102 96 42 5 322.81857 42.7 0.0022803138 10.0 1.05e-06
1 101 96 42 6 72.06146 44.5 0.008998697 10.0 1.05e-06
1 102 96 42 7 275.7902 42.7 0.0018641801 10.0 1.05e-06
1 66 101 43 1 158.38458 46.2 0.014046898 10.0 1.05e-06
1 41 112 44 1 258.6476 51.6 0.0003393164 10.0 1.05e-06
1 42 112 44 2 657.6447 51.7 0.00019316084 10.0 1.05e-06
1 43 112 44 3 668.6228 51.7 0.00012442195 10.0 1.05e-06
1 44 112 44 4 199.93515 51.4 0.0003442228 10.0 1.05e-06
1 44 111 44 5 518.6026 51.0 0.00023034947 10.0 1.05e-06
1 45 111 44 6 728.6159 51.2 0.000122057405 10.0 1.05e-06
1 46 111 44 7 199.8876 50.9 0.00038626447 10.0 1.05e-06
1 46 110 44 8 606.21704 51.2 0.00021037366 10.0 1.05e-06
1 47 110 44 9 725.28076 50.7 0.00019029487 10.0 1.05e-06
1 48 109 44 10 715.6861 50.9 0.00019214001 10.0 1.05e-06
1 49 109 44 11 720.00415 50.3 0.00018372075 10.0 1.05e-06
1 50 109 44 12 661.05994 50.3 0.00019161406 10.0 1.05e-06
1 51 109 44 13 661.4193 49.9 0.0001909276 10.0 1.05e-06
1 52 109 44 14 657.03894 49.9 0.00019156883 10.0 1.05e-06
1 53 109 44 15 657.08484 49.8 0.00019288073 10.0 1.05e-06
1 54 109 44 16 666.13324 49.8 0.00017557626 10.0 1.05e-06
1 55 109 44 17 554.9557 50.2 0.0001139199 10.0 1.05e-06
1 55 108 44 18 105.09786 50.3 0.0007354918 10.0 1.05e-06
1 56 108 44 19 701.9364 50.0 0.00017829573 10.0 1.05e-06
1 57 108 44 20 604.7158 49.9 0.00014614825 10.0 1.05e-06
1 57 107 44 21 317.99554 49.3 0.00023870693 10.0 1.05e-06
1 58 107 44 22 474.5171 49.6 0.00019321914 10.0 1.05e-06
1 58 106 44 23 482.72543 48.7 0.00019305597 10.0 1.05e-06
1 57 106 44 24 490.2571 48.6 0.00014354843 10.0 1.05e-06
1 57 105 44 25 244.49791 48.8 0.00030958996 10.0 1.05e-06
1 58 105 44 26 545.7856 48.5 0.00016280616 10.0 1.05e-06
1 58 104 44 27 381.92636 48.5 0.0002660866 10.0 1.05e-06
1 59 104 44 28 679.09247 47.5 0.0001888949 10.0 1.05e-06
1 60 104 44 29 660.18494 47.8 0.00021266648 10.0 1.05e-06
1 61 104 44 30 805.64905 47.5 0.000120989076 10.0 1.05e-06
1 62 104 44 31 212.03442 47.5 0.0004706026 10.0 1.05e-06
1 62 103 44 32 829.7551 46.9 0.00018683299 10.0 1.05e-06
1 63 102 44 33 788.7912 46.7 0.00015657798 10.0 1.05e-06
1 64 102 44 34 500.68442 46.4 0.00014010117 10.0 1.05e-06
1 64 101 44 35 231.67989 46.4 0.00038874676 10.0 1.05e-06
1 65 101 44 36 708.6412 46.4 0.00017509377 10.0 1.05e-06
1 66 101 44 37 586.8006 46.2 0.000113239315 10.0 1.05e-06
1 102 96 45 1 71.21636 42.7 1e-04 10.0 1.05e-06
1 102 97 45 2 221.20454 41.5 0.00019563033 10.0 1.05e-06
1 66 101 46 1 82.87945 46.2 0.0011024685 10.0 1.05e-06
1 67 101 46 2 656.3027 46.6 0.00024722455 10.0 1.05e-06
1 68 101 46 3 656.3027 46.4 0.0002532696 10.0 1.05e-06
1 69 101 46 4 688.398 46.0 0.00024903077 10.0 1.05e-06
1 70 101 46 5 698.4573 45.6 0.0002399092 10.0 1.05e-06
1 71 101 46 6 657.12286 45.7 0.00024705238 10.0 1.05e-06
1 72 101 46 7 656.20746 45.5 0.00024722464 10.0 1.05e-06
1 73 101 46 8 656.20746 45.5 0.0002472369 10.0 1.05e-06
1 74 101 46 9 656.2741 46.0 0.0002472986 10.0 1.05e-06
1 75 101 46 10 656.6672 45.8 0.0002491843 10.0 1.05e-06
1 76 101 46 11 667.0787 45.6 0.00025841928 10.0 1.05e-06
1 77 101 46 12 727.4919 45.3 0.00016630579 10.0 1.05e-06
1 77 100 46 13 251.262 45.2 0.0004625015 10.0 1.05e-06
1 78 100 46 14 688.84784 45.3 0.00024969713 10.0 1.05e-06
1 79 100 46 15 702.6259 45.2 0.00015414713 10.0 1.05e-06
1 80 100 46 16 173.56418 44.9 0.000496688 10.0 1.05e-06
1 80 101 46 17 523.83734 44.9 0.00028350635 10.0 1.05e-06
1 81 101 46 18 677.5888 44.7 0.00025472377 10.0 1.05e-06
1 82 101 46 19 718.69684 44.4 0.00013134506 10.0 1.05e-06
1 82 102 46 20 44.95912 44.4 0.00194767 10.0 1.05e-06
1 83 102 46 21 663.43 44.3 0.00028217855 10.0 1.05e-06
1 84 102 46 22 851.0298 43.7 0.00019029113 10.0 1.05e-06
1 85 102 46 23 459.0636 43.7 0.00018207417 10.0 1.05e-06
1 85 103 46 24 217.11026 43.4 0.000531406 10.0 1.05e-06
1 86 103 46 25 716.2436 43.6 0.00024268226 10.0 1.05e-06
1 87 103 46 26 689.9224 43.5 0.00025094068 10.0 1.05e-06
1 88 103 46 27 710.66376 43.4 0.00022047164 10.0 1.05e-06
1 89 103 46 28 556.8572 43.2 0.00017431527 10.0 1.05e-06
1 89 102 46 29 228.41159 43.1 0.000548579 10.0 1.05e-06
1 90 102 46 30 785.2571 43.3 0.00015399128 10.0 1.05e-06
1 91 102 46 31 192.98352 44.1 0.00049386575 10.0 1.05e-06
1 91 101 46 32 578.0389 43.9 0.00023844099 10.0 1.05e-06
1 92 101 46 33 536.9654 44.8 0.00020325328 10.0 1.05e-06
1 92 100 46 34 345.9598 46.2 0.00032873076 10.0 1.05e-06
1 93 100 46 35 574.0738 42.9 0.0001874553 10.0 1.05e-06
1 93 99 46 36 296.4989 43.1 0.00040076586 10.0 1.05e-06
1 94 99 46 37 664.78455 42.9 0.0002545768 10.0 1.05e-06
1 95 99 46 38 704.32184 43.0 0.00024271502 10.0 1.05e-06
1 96 99 46 39 678.6315 42.7 0.00024688564 10.0 1.05e-06
1 97 99 46 40 676.7702 41.9 0.0002340321 10.0 1.05e-06
1 98 99 46 41 604.5423 41.7 0.00015504446 10.0 1.05e-06
1 98 98 46 42 153.72334 41.7 0.0007296493 10.0 1.05e-06
1 99 98 46 43 753.66394 41.6 0.00019336291 10.0 1.05e-06
1 100 98 46 44 425.27237 41.5 0.00021795531 10.0 1.05e-06
1 100 97 46 45 324.57217 41.2 0.00040274547 10.0 1.05e-06
1 101 97 46 46 732.92755 41.1 0.00018814774 10.0 1.05e-06
1 102 97 46 47 382.64832 41.5 0.0002367052 10.0 1.05e-06
1 112 85 47 1 669.39667 71.4 0.0047791502 10.0 1.05e-06
1 112 86 47 2 667.55164 68.4 0.004754596 10.0 1.05e-06
1 112 87 47 3 658.8616 65.5 0.004786158 10.0 1.05e-06
1 112 88 47 4 658.97546 64.3 0.0047873994 10.0 1.05e-06
1 112 89 47 5 659.4309 61.1 0.0047859903 10.0 1.05e-06
1 112 90 47 6 659.49805 58.5 0.0048599015 10.0 1.05e-06
1 112 91 47 7 679.93634 52.6 0.004840966 10.0 1.05e-06
1 112 92 47 8 695.62714 50.4 0.004510521 10.0 1.05e-06
1 112 93 47 9 615.6167 49.2 0.0040341103 10.0 1.05e-06
1 113 93 47 10 422.24326 48.1 0.004124831 10.0 1.05e-06
1 113 94 47 11 305.61902 49.2 0.007994506 10.0 1.05e-06
1 114 94 47 12 715.4441 47.0 0.003757238 10.0 1.05e-06
1 115 94 47 13 407.9301 46.6 0.0063004293 10.0 1.05e-06