# WEL package for MODFLOW-NWT generated by Flopy 3.3.5
        25         1 
        25         0 # stress period 1
         2       134        70  -1.90893
         2       136        70  -1.90893
         2       175        49  -4.06332
         2       137        70  -1.90893
         2       138        69  -1.90893
         2       138        70  -1.90893
         2       174        50  -4.06332
         2       138        71  -1.90893
         2       138        72  -1.90893
         2       172        45  -4.14388
         2       174        49  -4.06332
         2       171        44  -4.14388
         2       147        65  -1.57171
         2       171        46  -4.14388
         2       174        48  -4.06332
         2       148        65  -1.57171
         2       149        64  -5.90896
         2       173        49  -4.06332
         2       149        65  -5.90896
         2       171        45  -4.14388
         2       150        65  -5.90896
         2       170        45  -4.14388
         2       147        64  -1.57171
         2       135        70  -1.90893
         2       139        70  -1.90893
        25         0 # stress period 2
         2       171        44  -4.17886
         2       138        69  -1.27006
         2       138        72  -1.27006
         2       174        49  -4.09345
         2       147        65  -1.72012
         2       174        50  -4.09345
         2       138        70  -1.27006
         2       139        70  -1.27006
         2       171        45  -4.17886
         2       136        70  -1.27006
         2       172        45  -4.17886
         2       170        45  -4.17886
         2       138        71  -1.27006
         2       149        64  -2.15256
         2       171        46  -4.17886
         2       150        65  -2.15256
         2       135        70  -1.27006
         2       137        70  -1.27006
         2       175        49  -4.09345
         2       149        65  -2.15256
         2       147        64  -1.72012
         2       148        65  -1.72012
         2       174        48  -4.09345
         2       173        49  -4.09345
         2       134        70  -1.27006
        25         0 # stress period 3
         2       138        72 -0.416701
         2       139        70 -0.416701
         2       149        65  -1.98332
         2       147        64  -1.86853
         2       135        70 -0.416701
         2       171        46  -4.21364
         2       172        45  -4.21364
         2       173        49  -4.11653
         2       150        65  -1.98332
         2       175        49  -4.11653
         2       174        49  -4.11653
         2       171        45  -4.21364
         2       147        65  -1.86853
         2       137        70 -0.416701
         2       149        64  -1.98332
         2       174        50  -4.11653
         2       138        70 -0.416701
         2       138        69 -0.416701
         2       136        70 -0.416701
         2       174        48  -4.11653
         2       170        45  -4.21364
         2       171        44  -4.21364
         2       138        71 -0.416701
         2       134        70 -0.416701
         2       148        65  -1.86853
        25         0 # stress period 4
         2       139        70    -1.096
         2       171        44  -4.12941
         2       135        70    -1.096
         2       138        69    -1.096
         2       174        48  -4.04383
         2       148        65  -2.01694
         2       137        70    -1.096
         2       149        65  -3.78992
         2       173        49  -4.04383
         2       175        49  -4.04383
         2       147        64  -2.01694
         2       138        71    -1.096
         2       171        46  -4.12941
         2       172        45  -4.12941
         2       150        65  -3.78992
         2       174        50  -4.04383
         2       134        70    -1.096
         2       149        64  -3.78992
         2       136        70    -1.096
         2       170        45  -4.12941
         2       138        70    -1.096
         2       171        45  -4.12941
         2       138        72    -1.096
         2       147        65  -2.01694
         2       174        49  -4.04383
        25         0 # stress period 5
         2       149        64  -4.33463
         2       147        64  -2.16534
         2       175        49   -4.0038
         2       147        65  -2.16534
         2       173        49   -4.0038
         2       174        48   -4.0038
         2       171        46  -4.09645
         2       136        70  -2.16014
         2       135        70  -2.16014
         2       172        45  -4.09645
         2       138        72  -2.16014
         2       134        70  -2.16014
         2       171        45  -4.09645
         2       138        71  -2.16014
         2       174        49   -4.0038
         2       170        45  -4.09645
         2       139        70  -2.16014
         2       150        65  -4.33463
         2       138        70  -2.16014
         2       174        50   -4.0038
         2       149        65  -4.33463
         2       148        65  -2.16534
         2       171        44  -4.09645
         2       138        69  -2.16014
         2       137        70  -2.16014
        25         0 # stress period 6
         2       170        45  -4.11255
         2       138        69  -2.31363
         2       174        50  -4.04464
         2       136        70  -2.31363
         2       138        70  -2.31363
         2       171        44  -4.11255
         2       138        71  -2.31363
         2       138        72  -2.31363
         2       172        45  -4.11255
         2       149        64  -1.57454
         2       171        45  -4.11255
         2       147        64  -2.31375
         2       171        46  -4.11255
         2       134        70  -2.31363
         2       137        70  -2.31363
         2       175        49  -4.04464
         2       139        70  -2.31363
         2       135        70  -2.31363
         2       173        49  -4.04464
         2       150        65  -1.57454
         2       149        65  -1.57454
         2       174        48  -4.04464
         2       148        65  -2.31375
         2       147        65  -2.31375
         2       174        49  -4.04464
        25         0 # stress period 7
         2       147        64  -2.38745
         2       171        46  -4.12424
         2       139        70  -2.22988
         2       174        50  -4.06016
         2       138        69  -2.22988
         2       172        45  -4.12424
         2       174        49  -4.06016
         2       147        65  -2.38745
         2       138        71  -2.22988
         2       175        49  -4.06016
         2       136        70  -2.22988
         2       138        70  -2.22988
         2       174        48  -4.06016
         2       138        72  -2.22988
         2       137        70  -2.22988
         2       149        65  -2.63607
         2       173        49  -4.06016
         2       134        70  -2.22988
         2       171        45  -4.12424
         2       148        65  -2.38745
         2       135        70  -2.22988
         2       150        65  -2.63607
         2       149        64  -2.63607
         2       171        44  -4.12424
         2       170        45  -4.12424
        25         0 # stress period 8
         2       138        70  -2.29324
         2       171        46  -4.11166
         2       147        65 -0.208608
         2       174        48  -4.06338
         2       173        49  -4.06338
         2       175        49  -4.06338
         2       171        44  -4.11166
         2       147        64 -0.208608
         2       171        45  -4.11166
         2       174        50  -4.06338
         2       135        70  -2.29324
         2       138        69  -2.29324
         2       149        64   -1.4352
         2       149        65   -1.4352
         2       174        49  -4.06338
         2       170        45  -4.11166
         2       150        65   -1.4352
         2       172        45  -4.11166
         2       138        72  -2.29324
         2       138        71  -2.29324
         2       139        70  -2.29324
         2       148        65 -0.208608
         2       137        70  -2.29324
         2       136        70  -2.29324
         2       134        70  -2.29324
        25         0 # stress period 9
         2       173        49  -3.95729
         2       174        50  -3.95729
         2       134        70  -2.00735
         2       135        70  -2.00735
         2       170        45  -4.01604
         2       139        70  -2.00735
         2       175        49  -3.95729
         2       138        69  -2.00735
         2       171        45  -4.01604
         2       147        64  -0.55285
         2       172        45  -4.01604
         2       174        48  -3.95729
         2       136        70  -2.00735
         2       138        70  -2.00735
         2       147        65  -0.55285
         2       148        65  -0.55285
         2       171        44  -4.01604
         2       149        64  -4.50208
         2       150        65  -4.50208
         2       137        70  -2.00735
         2       174        49  -3.95729
         2       171        46  -4.01604
         2       149        65  -4.50208
         2       138        72  -2.00735
         2       138        71  -2.00735
        25         0 # stress period 10
         2       138        70  -1.27617
         2       147        64 -0.897092
         2       137        70  -1.27617
         2       150        65    -4.732
         2       175        49  -3.99255
         2       138        71  -1.27617
         2       136        70  -1.27617
         2       138        72  -1.27617
         2       149        65    -4.732
         2       174        49  -3.99255
         2       171        45  -4.03398
         2       139        70  -1.27617
         2       134        70  -1.27617
         2       135        70  -1.27617
         2       172        45  -4.03398
         2       173        49  -3.99255
         2       147        65 -0.897092
         2       174        48  -3.99255
         2       174        50  -3.99255
         2       171        46  -4.03398
         2       171        44  -4.03398
         2       138        69  -1.27617
         2       149        64    -4.732
         2       148        65 -0.897092
         2       170        45  -4.03398
        25         0 # stress period 11
         2       137        70 -0.544997
         2       171        44  -3.91412
         2       174        50  -3.89066
         2       139        70 -0.544997
         2       138        69 -0.544997
         2       147        65  -1.24133
         2       148        65  -1.24133
         2       149        65  -5.87383
         2       134        70 -0.544997
         2       138        72 -0.544997
         2       171        46  -3.91412
         2       174        49  -3.89066
         2       149        64  -5.87383
         2       172        45  -3.91412
         2       150        65  -5.87383
         2       138        71 -0.544997
         2       174        48  -3.89066
         2       135        70 -0.544997
         2       138        70 -0.544997
         2       147        64  -1.24133
         2       170        45  -3.91412
         2       173        49  -3.89066
         2       171        45  -3.91412
         2       136        70 -0.544997
         2       175        49  -3.89066
        25         0 # stress period 12
         2       136        70 -0.886085
         2       147        64  -1.58558
         2       149        65  -2.47893
         2       175        49  -3.96866
         2       172        45  -3.98983
         2       173        49  -3.96866
         2       138        70 -0.886085
         2       174        48  -3.96866
         2       149        64  -2.47893
         2       174        49  -3.96866
         2       138        71 -0.886085
         2       134        70 -0.886085
         2       147        65  -1.58558
         2       171        44  -3.98983
         2       139        70 -0.886085
         2       148        65  -1.58558
         2       150        65  -2.47893
         2       138        69 -0.886085
         2       170        45  -3.98983
         2       171        46  -3.98983
         2       135        70 -0.886085
         2       174        50  -3.96866
         2       171        45  -3.98983
         2       137        70 -0.886085
         2       138        72 -0.886085
        25         0 # stress period 13
         2       172        45  -3.15134
         2       138        70  -2.44712
         2       150        65  -1.75509
         2       138        71  -2.44712
         2       138        69  -2.44712
         2       170        45  -3.15134
         2       171        44  -3.15134
         2       138        72  -2.44712
         2       174        50  -3.96752
         2       147        65  -1.92982
         2       147        64  -1.92982
         2       134        70  -2.44712
         2       135        70  -2.44712
         2       139        70  -2.44712
         2       149        64  -1.75509
         2       173        49  -3.96752
         2       171        45  -3.15134
         2       137        70  -2.44712
         2       175        49  -3.96752
         2       149        65  -1.75509
         2       174        48  -3.96752
         2       136        70  -2.44712
         2       174        49  -3.96752
         2       148        65  -1.92982
         2       171        46  -3.15134
        20         0 # stress period 14
         2       175        49  -4.21998
         2       147        64  -2.44558
         2       138        70  -2.40067
         2       173        49  -4.21998
         2       139        70  -2.40067
         2       135        70  -2.40067
         2       134        70  -2.40067
         2       174        48  -4.21998
         2       137        70  -2.40067
         2       138        72  -2.40067
         2       174        49  -4.21998
         2       150        65  -3.39282
         2       174        50  -4.21998
         2       149        65  -3.39282
         2       136        70  -2.40067
         2       138        69  -2.40067
         2       149        64  -3.39282
         2       138        71  -2.40067
         2       148        65  -2.44558
         2       147        65  -2.44558
        25         0 # stress period 15
         2       170        45  -3.46186
         2       138        69  -1.70209
         2       147        65  -2.84321
         2       171        44  -3.46186
         2       149        64  -5.21717
         2       174        50  -5.63262
         2       136        70  -1.70209
         2       173        49  -5.63262
         2       149        65  -5.21717
         2       135        70  -1.70209
         2       138        71  -1.70209
         2       174        48  -5.63262
         2       148        65  -2.84321
         2       137        70  -1.70209
         2       139        70  -1.70209
         2       134        70  -1.70209
         2       138        72  -1.70209
         2       150        65  -5.21717
         2       138        70  -1.70209
         2       175        49  -5.63262
         2       147        64  -2.84321
         2       172        45  -3.46186
         2       174        49  -5.63262
         2       171        46  -3.46186
         2       171        45  -3.46186
        25         0 # stress period 16
         2       147        65  -5.03926
         2       138        72  -1.78387
         2       149        65  -5.88665
         2       134        70  -1.78387
         2       172        45  -3.92142
         2       174        50  -4.11806
         2       174        48  -4.11806
         2       171        45  -3.92142
         2       138        71  -1.78387
         2       149        64  -5.88665
         2       148        65  -5.03926
         2       173        49  -4.11806
         2       138        70  -1.78387
         2       171        44  -3.92142
         2       147        64  -5.03926
         2       170        45  -3.92142
         2       171        46  -3.92142
         2       150        65  -5.88665
         2       174        49  -4.11806
         2       139        70  -1.78387
         2       175        49  -4.11806
         2       137        70  -1.78387
         2       135        70  -1.78387
         2       136        70  -1.78387
         2       138        69  -1.78387
        25         0 # stress period 17
         2       139        70  -1.04739
         2       147        64 -0.133781
         2       138        69  -1.04739
         2       171        45  -4.16458
         2       149        65  -2.11683
         2       173        49  -3.27556
         2       137        70  -1.04739
         2       135        70  -1.04739
         2       174        50  -3.27556
         2       170        45  -4.16458
         2       138        71  -1.04739
         2       175        49  -3.27556
         2       171        46  -4.16458
         2       171        44  -4.16458
         2       150        65  -2.11683
         2       174        49  -3.27556
         2       174        48  -3.27556
         2       134        70  -1.04739
         2       147        65 -0.133781
         2       172        45  -4.16458
         2       148        65 -0.133781
         2       149        64  -2.11683
         2       136        70  -1.04739
         2       138        70  -1.04739
         2       138        72  -1.04739
        25         0 # stress period 18
         2       150        65  -2.30766
         2       135        70  -2.42559
         2       174        48  -4.37591
         2       174        49  -4.37591
         2       138        70  -2.42559
         2       149        65  -2.30766
         2       138        69  -2.42559
         2       136        70  -2.42559
         2       171        46  -4.12525
         2       148        65 -0.397307
         2       170        45  -4.12525
         2       175        49  -4.37591
         2       147        65 -0.397307
         2       174        50  -4.37591
         2       149        64  -2.30766
         2       171        45  -4.12525
         2       139        70  -2.42559
         2       173        49  -4.37591
         2       147        64 -0.397307
         2       137        70  -2.42559
         2       134        70  -2.42559
         2       138        71  -2.42559
         2       171        44  -4.12525
         2       172        45  -4.12525
         2       138        72  -2.42559
        25         0 # stress period 19
         2       138        70   -2.2851
         2       138        71   -2.2851
         2       171        46  -3.22814
         2       138        72   -2.2851
         2       172        45  -3.22814
         2       147        64 -0.660834
         2       147        65 -0.660834
         2       174        48  -3.16087
         2       174        49  -3.16087
         2       171        44  -3.22814
         2       136        70   -2.2851
         2       150        65  -4.18397
         2       149        65  -4.18397
         2       171        45  -3.22814
         2       139        70   -2.2851
         2       170        45  -3.22814
         2       134        70   -2.2851
         2       137        70   -2.2851
         2       173        49  -3.16087
         2       135        70   -2.2851
         2       149        64  -4.18397
         2       174        50  -3.16087
         2       175        49  -3.16087
         2       148        65 -0.660834
         2       138        69   -2.2851
        25         0 # stress period 20
         2       149        64  -5.58385
         2       174        49  -2.46232
         2       136        70  -2.19068
         2       171        45  -3.70839
         2       149        65  -5.58385
         2       138        72  -2.19068
         2       134        70  -2.19068
         2       138        71  -2.19068
         2       175        49  -2.46232
         2       173        49  -2.46232
         2       135        70  -2.19068
         2       147        65  -0.92436
         2       150        65  -5.58385
         2       138        69  -2.19068
         2       148        65  -0.92436
         2       171        46  -3.70839
         2       174        50  -2.46232
         2       138        70  -2.19068
         2       137        70  -2.19068
         2       170        45  -3.70839
         2       139        70  -2.19068
         2       172        45  -3.70839
         2       171        44  -3.70839
         2       174        48  -2.46232
         2       147        64  -0.92436
        25         0 # stress period 21
         2       134        70  -2.45299
         2       174        49   -4.3635
         2       138        69  -2.45299
         2       175        49   -4.3635
         2       171        44  -4.22758
         2       137        70  -2.45299
         2       135        70  -2.45299
         2       174        50   -4.3635
         2       138        71  -2.45299
         2       147        64  -1.18789
         2       173        49   -4.3635
         2       149        65  -1.66744
         2       171        45  -4.22758
         2       149        64  -1.66744
         2       138        72  -2.45299
         2       170        45  -4.22758
         2       139        70  -2.45299
         2       172        45  -4.22758
         2       148        65  -1.18789
         2       150        65  -1.66744
         2       136        70  -2.45299
         2       147        65  -1.18789
         2       174        48   -4.3635
         2       171        46  -4.22758
         2       138        70  -2.45299
        25         0 # stress period 22
         2       148        65  -1.45141
         2       147        64  -1.45141
         2       136        70  -2.48037
         2       172        45  -4.10913
         2       171        45  -4.10913
         2       138        71  -2.48037
         2       149        65  -2.03861
         2       138        72  -2.48037
         2       134        70  -2.48037
         2       173        49  -4.32003
         2       170        45  -4.10913
         2       139        70  -2.48037
         2       149        64  -2.03861
         2       147        65  -1.45141
         2       138        70  -2.48037
         2       150        65  -2.03861
         2       171        44  -4.10913
         2       171        46  -4.10913
         2       138        69  -2.48037
         2       174        48  -4.32003
         2       137        70  -2.48037
         2       175        49  -4.32003
         2       174        49  -4.32003
         2       174        50  -4.32003
         2       135        70  -2.48037
        25         0 # stress period 23
         2       138        71  -2.46517
         2       149        64  -3.62861
         2       173        49  -4.30494
         2       147        64  -1.71494
         2       150        65  -3.62861
         2       171        44  -4.08796
         2       139        70  -2.46517
         2       174        48  -4.30494
         2       149        65  -3.62861
         2       147        65  -1.71494
         2       134        70  -2.46517
         2       171        46  -4.08796
         2       138        69  -2.46517
         2       137        70  -2.46517
         2       135        70  -2.46517
         2       174        50  -4.30494
         2       138        72  -2.46517
         2       148        65  -1.71494
         2       138        70  -2.46517
         2       136        70  -2.46517
         2       171        45  -4.08796
         2       174        49  -4.30494
         2       170        45  -4.08796
         2       172        45  -4.08796
         2       175        49  -4.30494
        25         0 # stress period 24
         2       174        49  -4.14335
         2       148        65  -1.97847
         2       172        45  -4.12189
         2       149        64  -5.22234
         2       173        49  -4.14335
         2       136        70  -1.51684
         2       150        65  -5.22234
         2       134        70  -1.51684
         2       174        50  -4.14335
         2       138        69  -1.51684
         2       138        70  -1.51684
         2       137        70  -1.51684
         2       170        45  -4.12189
         2       139        70  -1.51684
         2       174        48  -4.14335
         2       171        46  -4.12189
         2       147        65  -1.97847
         2       149        65  -5.22234
         2       135        70  -1.51684
         2       175        49  -4.14335
         2       147        64  -1.97847
         2       171        44  -4.12189
         2       138        72  -1.51684
         2       171        45  -4.12189
         2       138        71  -1.51684
        25         0 # stress period 25
         2       139        70  -1.08137
         2       147        64   -4.0361
         2       171        46  -4.09211
         2       137        70  -1.08137
         2       174        48  -1.31577
         2       174        49  -1.31577
         2       147        65   -4.0361
         2       136        70  -1.08137
         2       175        49  -1.31577
         2       138        72  -1.08137
         2       148        65   -4.0361
         2       149        64   -5.1328
         2       134        70  -1.08137
         2       171        45  -4.09211
         2       138        71  -1.08137
         2       138        69  -1.08137
         2       174        50  -1.31577
         2       135        70  -1.08137
         2       149        65   -5.1328
         2       173        49  -1.31577
         2       150        65   -5.1328
         2       170        45  -4.09211
         2       138        70  -1.08137
         2       171        44  -4.09211
         2       172        45  -4.09211
        25         0 # stress period 26
         2       135        70  -2.09385
         2       138        69  -2.09385
         2       174        50  -3.72757
         2       175        49  -3.72757
         2       171        44  -2.41724
         2       148        65  -1.01255
         2       147        65  -1.01255
         2       138        71  -2.09385
         2       171        45  -2.41724
         2       137        70  -2.09385
         2       138        70  -2.09385
         2       174        48  -3.72757
         2       147        64  -1.01255
         2       174        49  -3.72757
         2       139        70  -2.09385
         2       150        65  -2.04815
         2       134        70  -2.09385
         2       171        46  -2.41724
         2       173        49  -3.72757
         2       136        70  -2.09385
         2       172        45  -2.41724
         2       149        64  -2.04815
         2       138        72  -2.09385
         2       149        65  -2.04815
         2       170        45  -2.41724
        22         0 # stress period 27
         2       150        65  -5.39923
         2       138        70  -2.19521
         2       175        49  -4.40185
         2       137        70  -2.19521
         2       135        70  -2.19521
         2       149        65  -5.39923
         2       136        70  -2.19521
         2       174        48  -4.40185
         2       172        45  -4.19781
         2       171        44  -4.19781
         2       134        70  -2.19521
         2       139        70  -2.19521
         2       173        49  -4.40185
         2       170        45  -4.19781
         2       138        72  -2.19521
         2       149        64  -5.39923
         2       174        49  -4.40185
         2       138        71  -2.19521
         2       138        69  -2.19521
         2       174        50  -4.40185
         2       171        46  -4.19781
         2       171        45  -4.19781
        22         0 # stress period 28
         2       174        48  -4.40185
         2       137        70  -2.19521
         2       171        44  -4.19781
         2       171        46  -4.19781
         2       174        50  -4.40185
         2       170        45  -4.19781
         2       138        70  -2.19521
         2       150        65  -5.39923
         2       138        69  -2.19521
         2       139        70  -2.19521
         2       173        49  -4.40185
         2       138        72  -2.19521
         2       149        64  -5.39923
         2       134        70  -2.19521
         2       174        49  -4.40185
         2       135        70  -2.19521
         2       171        45  -4.19781
         2       149        65  -5.39923
         2       136        70  -2.19521
         2       175        49  -4.40185
         2       138        71  -2.19521
         2       172        45  -4.19781
        22         0 # stress period 29
         2       174        48  -4.40185
         2       171        45  -4.19781
         2       174        50  -4.40185
         2       138        71  -2.19521
         2       138        69  -2.19521
         2       171        46  -4.19781
         2       149        64  -5.39923
         2       174        49  -4.40185
         2       170        45  -4.19781
         2       173        49  -4.40185
         2       139        70  -2.19521
         2       171        44  -4.19781